/*---------------------------------------------------------------------------*\
  =========                 |
  \\      /  F ield         | OpenFOAM: The Open Source CFD Toolbox
   \\    /   O peration     | Website:  https://openfoam.org
    \\  /    A nd           | Version:  12
     \\/     M anipulation  |
\*---------------------------------------------------------------------------*/
Build  : 12-86e126a7bc4d
Exec   : decomposePar -allRegions
Date   : Mar 05 2025
Time   : 17:16:17
Host   : "8d934fbbdd21"
PID    : 299
I/O    : uncollated
Case   : /root/OpenFOAM/12/work/OpenFOAM_v12_cases/catalystHeatUp
nProcs : 1
sigFpe : Enabling floating point exception trapping (FOAM_SIGFPE).
fileModificationChecking : Monitoring run-time modified files using timeStampMaster (fileModificationSkew 10)
allowSystemOperations : Allowing user-supplied system call operations

// * * * * * * * * * * * * * * * * * * * * * * * * * * * * * * * * * * * * * //
Create time

SCR1  Calculating distribution of cells
SCR1  
SCR1  Selecting decomposer scotch
SCR1  
SCR1  Finished decomposition in 0.060069 s
SCR1  
SCR1  Calculating original mesh data
SCR1  
SCR1  Distributing cells to processors
SCR1  
SCR1  Distributing faces to processors
SCR1  
SCR1  Distributing points to processors
SCR1  
SCR1  Constructing processor meshes
SCR1  
SCR1  Processor 0
SCR1      Number of cells = 1490
SCR1      Number of faces shared with processor 1 = 147
SCR1      Number of faces shared with processor 2 = 84
SCR1      Number of faces shared with processor 3 = 36
SCR1      Number of faces shared with processor 5 = 156
SCR1      Number of faces shared with processor 6 = 4
SCR1      Number of faces shared with processor 8 = 120
SCR1      Number of faces shared with processor 9 = 2
SCR1      Number of faces shared with processor 15 = 4
SCR1      Number of processor patches = 8
SCR1      Number of processor faces = 553
SCR1      Number of boundary faces = 253
SCR1  
SCR1  Processor 1
SCR1      Number of cells = 1498
SCR1      Number of faces shared with processor 0 = 147
SCR1      Number of faces shared with processor 3 = 108
SCR1      Number of faces shared with processor 9 = 130
SCR1      Number of processor patches = 3
SCR1      Number of processor faces = 385
SCR1      Number of boundary faces = 393
SCR1  
SCR1  Processor 2
SCR1      Number of cells = 1492
SCR1      Number of faces shared with processor 0 = 84
SCR1      Number of faces shared with processor 3 = 200
SCR1      Number of faces shared with processor 6 = 72
SCR1      Number of faces shared with processor 7 = 144
SCR1      Number of processor patches = 4
SCR1      Number of processor faces = 500
SCR1      Number of boundary faces = 338
SCR1  
SCR1  Processor 3
SCR1      Number of cells = 1508
SCR1      Number of faces shared with processor 0 = 36
SCR1      Number of faces shared with processor 1 = 108
SCR1      Number of faces shared with processor 2 = 200
SCR1      Number of processor patches = 3
SCR1      Number of processor faces = 344
SCR1      Number of boundary faces = 450
SCR1  
SCR1  Processor 4
SCR1      Number of cells = 1518
SCR1      Number of faces shared with processor 5 = 169
SCR1      Number of faces shared with processor 6 = 115
SCR1      Number of faces shared with processor 14 = 120
SCR1      Number of processor patches = 3
SCR1      Number of processor faces = 404
SCR1      Number of boundary faces = 404
SCR1  
SCR1  Processor 5
SCR1      Number of cells = 1518
SCR1      Number of faces shared with processor 0 = 156
SCR1      Number of faces shared with processor 4 = 169
SCR1      Number of faces shared with processor 6 = 116
SCR1      Number of faces shared with processor 14 = 17
SCR1      Number of faces shared with processor 15 = 123
SCR1      Number of processor patches = 5
SCR1      Number of processor faces = 581
SCR1      Number of boundary faces = 249
SCR1  
SCR1  Processor 6
SCR1      Number of cells = 1512
SCR1      Number of faces shared with processor 0 = 4
SCR1      Number of faces shared with processor 2 = 72
SCR1      Number of faces shared with processor 4 = 115
SCR1      Number of faces shared with processor 5 = 116
SCR1      Number of faces shared with processor 7 = 216
SCR1      Number of processor patches = 5
SCR1      Number of processor faces = 523
SCR1      Number of boundary faces = 377
SCR1  
SCR1  Processor 7
SCR1      Number of cells = 1500
SCR1      Number of faces shared with processor 2 = 144
SCR1      Number of faces shared with processor 6 = 216
SCR1      Number of processor patches = 2
SCR1      Number of processor faces = 360
SCR1      Number of boundary faces = 418
SCR1  
SCR1  Processor 8
SCR1      Number of cells = 1518
SCR1      Number of faces shared with processor 0 = 120
SCR1      Number of faces shared with processor 9 = 149
SCR1      Number of faces shared with processor 10 = 84
SCR1      Number of faces shared with processor 11 = 45
SCR1      Number of faces shared with processor 15 = 156
SCR1      Number of processor patches = 5
SCR1      Number of processor faces = 554
SCR1      Number of boundary faces = 252
SCR1  
SCR1  Processor 9
SCR1      Number of cells = 1506
SCR1      Number of faces shared with processor 0 = 2
SCR1      Number of faces shared with processor 1 = 130
SCR1      Number of faces shared with processor 8 = 149
SCR1      Number of faces shared with processor 11 = 111
SCR1      Number of processor patches = 4
SCR1      Number of processor faces = 392
SCR1      Number of boundary faces = 396
SCR1  
SCR1  Processor 10
SCR1      Number of cells = 1512
SCR1      Number of faces shared with processor 8 = 84
SCR1      Number of faces shared with processor 11 = 192
SCR1      Number of faces shared with processor 12 = 143
SCR1      Number of faces shared with processor 13 = 92
SCR1      Number of processor patches = 4
SCR1      Number of processor faces = 511
SCR1      Number of boundary faces = 339
SCR1  
SCR1  Processor 11
SCR1      Number of cells = 1500
SCR1      Number of faces shared with processor 8 = 45
SCR1      Number of faces shared with processor 9 = 111
SCR1      Number of faces shared with processor 10 = 192
SCR1      Number of processor patches = 3
SCR1      Number of processor faces = 348
SCR1      Number of boundary faces = 454
SCR1  
SCR1  Processor 12
SCR1      Number of cells = 1496
SCR1      Number of faces shared with processor 10 = 143
SCR1      Number of faces shared with processor 13 = 196
SCR1      Number of processor patches = 2
SCR1      Number of processor faces = 339
SCR1      Number of boundary faces = 461
SCR1  
SCR1  Processor 13
SCR1      Number of cells = 1492
SCR1      Number of faces shared with processor 10 = 92
SCR1      Number of faces shared with processor 12 = 196
SCR1      Number of faces shared with processor 14 = 108
SCR1      Number of faces shared with processor 15 = 120
SCR1      Number of processor patches = 4
SCR1      Number of processor faces = 516
SCR1      Number of boundary faces = 334
SCR1  
SCR1  Processor 14
SCR1      Number of cells = 1496
SCR1      Number of faces shared with processor 4 = 120
SCR1      Number of faces shared with processor 5 = 17
SCR1      Number of faces shared with processor 13 = 108
SCR1      Number of faces shared with processor 15 = 153
SCR1      Number of processor patches = 4
SCR1      Number of processor faces = 398
SCR1      Number of boundary faces = 394
SCR1  
SCR1  Processor 15
SCR1      Number of cells = 1516
SCR1      Number of faces shared with processor 0 = 4
SCR1      Number of faces shared with processor 5 = 123
SCR1      Number of faces shared with processor 8 = 156
SCR1      Number of faces shared with processor 13 = 120
SCR1      Number of faces shared with processor 14 = 153
SCR1      Number of processor patches = 5
SCR1      Number of processor faces = 556
SCR1      Number of boundary faces = 252
SCR1  
SCR1  Number of processor faces = 3632
SCR1  Max number of cells = 1518 (0.89730808% above average 1504.5)
SCR1  Max number of processor patches = 8 (100% above average 4)
SCR1  Max number of faces between processors = 581 (27.973568% above average 454)
      
SCR2  Calculating distribution of cells
SCR2  
SCR2  Selecting decomposer scotch
SCR2  
SCR2  Finished decomposition in 0.060088 s
SCR2  
SCR2  Calculating original mesh data
SCR2  
SCR2  Distributing cells to processors
SCR2  
SCR2  Distributing faces to processors
SCR2  
SCR2  Distributing points to processors
SCR2  
SCR2  Constructing processor meshes
SCR2  
SCR2  Processor 0
SCR2      Number of cells = 1516
SCR2      Number of faces shared with processor 1 = 153
SCR2      Number of faces shared with processor 2 = 120
SCR2      Number of faces shared with processor 5 = 144
SCR2      Number of faces shared with processor 6 = 12
SCR2      Number of faces shared with processor 10 = 79
SCR2      Number of faces shared with processor 11 = 36
SCR2      Number of faces shared with processor 12 = 12
SCR2      Number of processor patches = 7
SCR2      Number of processor faces = 556
SCR2      Number of boundary faces = 252
SCR2  
SCR2  Processor 1
SCR2      Number of cells = 1496
SCR2      Number of faces shared with processor 0 = 153
SCR2      Number of faces shared with processor 2 = 108
SCR2      Number of faces shared with processor 11 = 137
SCR2      Number of processor patches = 3
SCR2      Number of processor faces = 398
SCR2      Number of boundary faces = 394
SCR2  
SCR2  Processor 2
SCR2      Number of cells = 1492
SCR2      Number of faces shared with processor 0 = 120
SCR2      Number of faces shared with processor 1 = 108
SCR2      Number of faces shared with processor 3 = 196
SCR2      Number of faces shared with processor 6 = 92
SCR2      Number of processor patches = 4
SCR2      Number of processor faces = 516
SCR2      Number of boundary faces = 334
SCR2  
SCR2  Processor 3
SCR2      Number of cells = 1496
SCR2      Number of faces shared with processor 2 = 196
SCR2      Number of faces shared with processor 7 = 143
SCR2      Number of processor patches = 2
SCR2      Number of processor faces = 339
SCR2      Number of boundary faces = 461
SCR2  
SCR2  Processor 4
SCR2      Number of cells = 1512
SCR2      Number of faces shared with processor 5 = 156
SCR2      Number of faces shared with processor 6 = 114
SCR2      Number of faces shared with processor 13 = 126
SCR2      Number of processor patches = 3
SCR2      Number of processor faces = 396
SCR2      Number of boundary faces = 420
SCR2  
SCR2  Processor 5
SCR2      Number of cells = 1512
SCR2      Number of faces shared with processor 0 = 144
SCR2      Number of faces shared with processor 4 = 156
SCR2      Number of faces shared with processor 6 = 126
SCR2      Number of faces shared with processor 12 = 120
SCR2      Number of faces shared with processor 13 = 6
SCR2      Number of processor patches = 5
SCR2      Number of processor faces = 552
SCR2      Number of boundary faces = 252
SCR2  
SCR2  Processor 6
SCR2      Number of cells = 1508
SCR2      Number of faces shared with processor 0 = 12
SCR2      Number of faces shared with processor 2 = 92
SCR2      Number of faces shared with processor 4 = 114
SCR2      Number of faces shared with processor 5 = 126
SCR2      Number of faces shared with processor 7 = 200
SCR2      Number of processor patches = 5
SCR2      Number of processor faces = 544
SCR2      Number of boundary faces = 310
SCR2  
SCR2  Processor 7
SCR2      Number of cells = 1504
SCR2      Number of faces shared with processor 3 = 143
SCR2      Number of faces shared with processor 6 = 200
SCR2      Number of processor patches = 2
SCR2      Number of processor faces = 343
SCR2      Number of boundary faces = 460
SCR2  
SCR2  Processor 8
SCR2      Number of cells = 1493
SCR2      Number of faces shared with processor 9 = 193
SCR2      Number of faces shared with processor 10 = 152
SCR2      Number of faces shared with processor 11 = 105
SCR2      Number of faces shared with processor 14 = 72
SCR2      Number of processor patches = 4
SCR2      Number of processor faces = 522
SCR2      Number of boundary faces = 350
SCR2  
SCR2  Processor 9
SCR2      Number of cells = 1493
SCR2      Number of faces shared with processor 8 = 193
SCR2      Number of faces shared with processor 14 = 132
SCR2      Number of processor patches = 2
SCR2      Number of processor faces = 325
SCR2      Number of boundary faces = 441
SCR2  
SCR2  Processor 10
SCR2      Number of cells = 1519
SCR2      Number of faces shared with processor 0 = 79
SCR2      Number of faces shared with processor 8 = 152
SCR2      Number of faces shared with processor 11 = 344
SCR2      Number of faces shared with processor 12 = 156
SCR2      Number of faces shared with processor 14 = 12
SCR2      Number of processor patches = 5
SCR2      Number of processor faces = 743
SCR2      Number of boundary faces = 239
SCR2  
SCR2  Processor 11
SCR2      Number of cells = 1519
SCR2      Number of faces shared with processor 0 = 36
SCR2      Number of faces shared with processor 1 = 137
SCR2      Number of faces shared with processor 8 = 105
SCR2      Number of faces shared with processor 10 = 344
SCR2      Number of processor patches = 4
SCR2      Number of processor faces = 622
SCR2      Number of boundary faces = 418
SCR2  
SCR2  Processor 12
SCR2      Number of cells = 1512
SCR2      Number of faces shared with processor 0 = 12
SCR2      Number of faces shared with processor 5 = 120
SCR2      Number of faces shared with processor 10 = 156
SCR2      Number of faces shared with processor 13 = 144
SCR2      Number of faces shared with processor 14 = 84
SCR2      Number of faces shared with processor 15 = 36
SCR2      Number of processor patches = 6
SCR2      Number of processor faces = 552
SCR2      Number of boundary faces = 252
SCR2  
SCR2  Processor 13
SCR2      Number of cells = 1500
SCR2      Number of faces shared with processor 4 = 126
SCR2      Number of faces shared with processor 5 = 6
SCR2      Number of faces shared with processor 12 = 144
SCR2      Number of faces shared with processor 15 = 108
SCR2      Number of processor patches = 4
SCR2      Number of processor faces = 384
SCR2      Number of boundary faces = 394
SCR2  
SCR2  Processor 14
SCR2      Number of cells = 1492
SCR2      Number of faces shared with processor 8 = 72
SCR2      Number of faces shared with processor 9 = 132
SCR2      Number of faces shared with processor 10 = 12
SCR2      Number of faces shared with processor 12 = 84
SCR2      Number of faces shared with processor 15 = 200
SCR2      Number of processor patches = 5
SCR2      Number of processor faces = 500
SCR2      Number of boundary faces = 342
SCR2  
SCR2  Processor 15
SCR2      Number of cells = 1508
SCR2      Number of faces shared with processor 12 = 36
SCR2      Number of faces shared with processor 13 = 108
SCR2      Number of faces shared with processor 14 = 200
SCR2      Number of processor patches = 3
SCR2      Number of processor faces = 344
SCR2      Number of boundary faces = 446
SCR2  
SCR2  Number of processor faces = 3818
SCR2  Max number of cells = 1519 (0.96377534% above average 1504.5)
SCR2  Max number of processor patches = 7 (75% above average 4)
SCR2  Max number of faces between processors = 743 (55.683604% above average 477.25)
      
fluid Calculating distribution of cells
fluid 
fluid Selecting decomposer scotch
fluid 
fluid Finished decomposition in 0.800692 s
fluid 
fluid Calculating original mesh data
fluid 
fluid Distributing cells to processors
fluid 
fluid Distributing faces to processors
fluid 
fluid Distributing points to processors
fluid 
fluid Constructing processor meshes
fluid 
fluid Processor 0
fluid     Number of cells = 19191
fluid     Number of faces shared with processor 1 = 1252
fluid     Number of faces shared with processor 2 = 542
fluid     Number of faces shared with processor 5 = 861
fluid     Number of faces shared with processor 6 = 132
fluid     Number of faces shared with processor 7 = 16
fluid     Number of faces shared with processor 11 = 343
fluid     Number of faces shared with processor 12 = 196
fluid     Number of faces shared with processor 13 = 77
fluid     Number of processor patches = 8
fluid     Number of processor faces = 3419
fluid     Number of boundary faces = 1134
fluid 
fluid Processor 1
fluid     Number of cells = 19166
fluid     Number of faces shared with processor 0 = 1252
fluid     Number of faces shared with processor 2 = 413
fluid     Number of faces shared with processor 4 = 711
fluid     Number of faces shared with processor 5 = 23
fluid     Number of faces shared with processor 7 = 179
fluid     Number of faces shared with processor 10 = 393
fluid     Number of faces shared with processor 12 = 196
fluid     Number of faces shared with processor 13 = 35
fluid     Number of processor patches = 8
fluid     Number of processor faces = 3202
fluid     Number of boundary faces = 1316
fluid 
fluid Processor 2
fluid     Number of cells = 19239
fluid     Number of faces shared with processor 0 = 542
fluid     Number of faces shared with processor 1 = 413
fluid     Number of faces shared with processor 3 = 918
fluid     Number of faces shared with processor 6 = 505
fluid     Number of faces shared with processor 7 = 493
fluid     Number of faces shared with processor 13 = 168
fluid     Number of processor patches = 6
fluid     Number of processor faces = 3039
fluid     Number of boundary faces = 1265
fluid 
fluid Processor 3
fluid     Number of cells = 19240
fluid     Number of faces shared with processor 2 = 918
fluid     Number of faces shared with processor 6 = 296
fluid     Number of faces shared with processor 7 = 217
fluid     Number of faces shared with processor 13 = 38
fluid     Number of processor patches = 4
fluid     Number of processor faces = 1469
fluid     Number of boundary faces = 2617
fluid 
fluid Processor 4
fluid     Number of cells = 19036
fluid     Number of faces shared with processor 1 = 711
fluid     Number of faces shared with processor 5 = 1116
fluid     Number of faces shared with processor 7 = 547
fluid     Number of faces shared with processor 8 = 810
fluid     Number of faces shared with processor 10 = 80
fluid     Number of processor patches = 5
fluid     Number of processor faces = 3264
fluid     Number of boundary faces = 1071
fluid 
fluid Processor 5
fluid     Number of cells = 19054
fluid     Number of faces shared with processor 0 = 861
fluid     Number of faces shared with processor 1 = 23
fluid     Number of faces shared with processor 4 = 1116
fluid     Number of faces shared with processor 6 = 510
fluid     Number of faces shared with processor 7 = 23
fluid     Number of faces shared with processor 8 = 718
fluid     Number of faces shared with processor 10 = 8
fluid     Number of faces shared with processor 11 = 90
fluid     Number of processor patches = 8
fluid     Number of processor faces = 3349
fluid     Number of boundary faces = 1177
fluid 
fluid Processor 6
fluid     Number of cells = 19016
fluid     Number of faces shared with processor 0 = 132
fluid     Number of faces shared with processor 2 = 505
fluid     Number of faces shared with processor 3 = 296
fluid     Number of faces shared with processor 5 = 510
fluid     Number of faces shared with processor 7 = 1165
fluid     Number of faces shared with processor 8 = 257
fluid     Number of processor patches = 6
fluid     Number of processor faces = 2865
fluid     Number of boundary faces = 1506
fluid 
fluid Processor 7
fluid     Number of cells = 18973
fluid     Number of faces shared with processor 0 = 16
fluid     Number of faces shared with processor 1 = 179
fluid     Number of faces shared with processor 2 = 493
fluid     Number of faces shared with processor 3 = 217
fluid     Number of faces shared with processor 4 = 547
fluid     Number of faces shared with processor 5 = 23
fluid     Number of faces shared with processor 6 = 1165
fluid     Number of faces shared with processor 8 = 277
fluid     Number of processor patches = 8
fluid     Number of processor faces = 2917
fluid     Number of boundary faces = 1423
fluid 
fluid Processor 8
fluid     Number of cells = 19172
fluid     Number of faces shared with processor 4 = 810
fluid     Number of faces shared with processor 5 = 718
fluid     Number of faces shared with processor 6 = 257
fluid     Number of faces shared with processor 7 = 277
fluid     Number of faces shared with processor 9 = 926
fluid     Number of faces shared with processor 10 = 423
fluid     Number of faces shared with processor 11 = 360
fluid     Number of processor patches = 7
fluid     Number of processor faces = 3771
fluid     Number of boundary faces = 2408
fluid 
fluid Processor 9
fluid     Number of cells = 19266
fluid     Number of faces shared with processor 8 = 926
fluid     Number of faces shared with processor 10 = 459
fluid     Number of faces shared with processor 11 = 529
fluid     Number of faces shared with processor 14 = 33
fluid     Number of faces shared with processor 15 = 814
fluid     Number of processor patches = 5
fluid     Number of processor faces = 2761
fluid     Number of boundary faces = 1485
fluid 
fluid Processor 10
fluid     Number of cells = 19194
fluid     Number of faces shared with processor 1 = 393
fluid     Number of faces shared with processor 4 = 80
fluid     Number of faces shared with processor 5 = 8
fluid     Number of faces shared with processor 8 = 423
fluid     Number of faces shared with processor 9 = 459
fluid     Number of faces shared with processor 11 = 1052
fluid     Number of faces shared with processor 12 = 150
fluid     Number of faces shared with processor 13 = 571
fluid     Number of faces shared with processor 14 = 295
fluid     Number of faces shared with processor 15 = 22
fluid     Number of processor patches = 10
fluid     Number of processor faces = 3453
fluid     Number of boundary faces = 1002
fluid 
fluid Processor 11
fluid     Number of cells = 19220
fluid     Number of faces shared with processor 0 = 343
fluid     Number of faces shared with processor 5 = 90
fluid     Number of faces shared with processor 8 = 360
fluid     Number of faces shared with processor 9 = 529
fluid     Number of faces shared with processor 10 = 1052
fluid     Number of faces shared with processor 12 = 130
fluid     Number of faces shared with processor 13 = 698
fluid     Number of faces shared with processor 14 = 263
fluid     Number of processor patches = 8
fluid     Number of processor faces = 3465
fluid     Number of boundary faces = 1008
fluid 
fluid Processor 12
fluid     Number of cells = 18938
fluid     Number of faces shared with processor 0 = 196
fluid     Number of faces shared with processor 1 = 196
fluid     Number of faces shared with processor 10 = 150
fluid     Number of faces shared with processor 11 = 130
fluid     Number of faces shared with processor 13 = 182
fluid     Number of faces shared with processor 14 = 454
fluid     Number of processor patches = 6
fluid     Number of processor faces = 1308
fluid     Number of boundary faces = 3614
fluid 
fluid Processor 13
fluid     Number of cells = 18991
fluid     Number of faces shared with processor 0 = 77
fluid     Number of faces shared with processor 1 = 35
fluid     Number of faces shared with processor 2 = 168
fluid     Number of faces shared with processor 3 = 38
fluid     Number of faces shared with processor 10 = 571
fluid     Number of faces shared with processor 11 = 698
fluid     Number of faces shared with processor 12 = 182
fluid     Number of faces shared with processor 14 = 1214
fluid     Number of processor patches = 8
fluid     Number of processor faces = 2983
fluid     Number of boundary faces = 2579
fluid 
fluid Processor 14
fluid     Number of cells = 19235
fluid     Number of faces shared with processor 9 = 33
fluid     Number of faces shared with processor 10 = 295
fluid     Number of faces shared with processor 11 = 263
fluid     Number of faces shared with processor 12 = 454
fluid     Number of faces shared with processor 13 = 1214
fluid     Number of faces shared with processor 15 = 1390
fluid     Number of processor patches = 6
fluid     Number of processor faces = 3649
fluid     Number of boundary faces = 1371
fluid 
fluid Processor 15
fluid     Number of cells = 19102
fluid     Number of faces shared with processor 9 = 814
fluid     Number of faces shared with processor 10 = 22
fluid     Number of faces shared with processor 14 = 1390
fluid     Number of processor patches = 3
fluid     Number of processor faces = 2226
fluid     Number of boundary faces = 1822
fluid 
fluid Number of processor faces = 23570
fluid Max number of cells = 19266 (0.72639225% above average 19127.062)
fluid Max number of processor patches = 10 (50.943396% above average 6.625)
fluid Max number of faces between processors = 3771 (27.993212% above average 2946.25)
      
      Time = 0s
      
SCR1  Decomposing FV fields
SCR1  
SCR1      Decomposing volScalarFields
SCR1  
SCR1          htcConst
SCR1          p
SCR1          T
SCR1          AoV
SCR1  
SCR1  Decomposing point fields
SCR1  
SCR1      (no point fields)
      
SCR2  Decomposing FV fields
SCR2  
SCR2      Decomposing volScalarFields
SCR2  
SCR2          htcConst
SCR2          p
SCR2          T
SCR2          AoV
SCR2  
SCR2  Decomposing point fields
SCR2  
SCR2      (no point fields)
      
fluid Decomposing FV fields
fluid 
fluid     Decomposing volScalarFields
fluid 
fluid         alphat
fluid         nut
fluid         htcConst
fluid         AoV
fluid         p_rgh
fluid         p
fluid         T
fluid         k
fluid         omega
fluid 
fluid     Decomposing volVectorFields
fluid 
fluid         U
fluid 
fluid Decomposing point fields
fluid 
fluid     (no point fields)
      
      End
      
