--------------------------------------------------------------------------
WARNING: No preset parameters were found for the device that Open MPI
detected:

  Local host:            mintu
  Device name:           irdma0
  Device vendor ID:      0x8086
  Device vendor part ID: 14289

Default device parameters will be used, which may result in lower
performance.  You can edit any of the files specified by the
btl_openib_device_param_files MCA parameter to set values for your
device.

NOTE: You can turn off this warning by setting the MCA parameter
      btl_openib_warn_no_device_params_found to 0.
--------------------------------------------------------------------------
--------------------------------------------------------------------------
No OpenFabrics connection schemes reported that they were able to be
used on a specific port.  As such, the openib BTL (OpenFabrics
support) will be disabled for this port.

  Local host:           mintu
  Local device:         irdma3
  Local port:           1
  CPCs attempted:       udcm
--------------------------------------------------------------------------
/*---------------------------------------------------------------------------*\
| =========                 |                                                 |
| \\      /  F ield         | OpenFOAM: The Open Source CFD Toolbox           |
|  \\    /   O peration     | Version:  2212                                  |
|   \\  /    A nd           | Website:  www.openfoam.com                      |
|    \\/     M anipulation  |                                                 |
\*---------------------------------------------------------------------------*/
Build  : _70874860-20230612 OPENFOAM=2212 patch=230612 version=2212
Arch   : "LSB;label=32;scalar=64"
Exec   : snappyHexMesh -parallel -decomposeParDict system/decomposeParDict.6 -overwrite
Date   : Mar 06 2025
Time   : 15:00:21
Host   : mintu
PID    : 555082
I/O    : uncollated
Case   : /scratch/dhruv/OpenFOAM_testcases_Dhruv/OpenFOAM_v2412_cases/incompressible_simpleFoam_motorBike_refined
nProcs : 6
Hosts  :
(
    (mintu 6)
)
Pstream initialized with:
    floatTransfer      : 0
    nProcsSimpleSum    : 0
    commsType          : nonBlocking
    polling iterations : 0
trapFpe: Floating point exception trapping enabled (FOAM_SIGFPE).
fileModificationChecking : Monitoring run-time modified files using timeStampMaster (fileModificationSkew 5, maxFileModificationPolls 20)
allowSystemOperations : Allowing user-supplied system call operations

// * * * * * * * * * * * * * * * * * * * * * * * * * * * * * * * * * * * * * //
Create time

--> FOAM Warning : 
    From virtual void Foam::Time::readDict()
    in file db/Time/TimeIO.C at line 408
    Reading "system/controlDict" at line 24 to 54
    Disabled binary format compression (inefficient/ineffective)
Create mesh for time = 0

Read mesh in = 0.01 s

Overall mesh bounding box  : (-5 -4 0) (15 4 8)
Relative tolerance         : 1e-06
Absolute matching distance : 2.29783e-05

Reading refinement surfaces.
Read refinement surfaces in = 0.42 s

Reading refinement shells.
Refinement level 4 for all cells inside refinementBox
Read refinement shells in = 0.01 s

Setting refinement level of surface to be consistent with shells.
For geometry motorBike.obj detected 0 uncached triangles out of 331653
Checked shell refinement in = 1.27 s

Reading features.
Read edgeMesh motorBike.eMesh
    points      : 20665
    edges       : 20867
    boundingBox : (-0.241214 -0.337971 -4.232e-05) (1.75115 0.329368 1.21979)

Refinement level according to distance to "motorBike.eMesh" (20665 points, 20867 edges).
    level 10 for all cells within 0 metre.
Read features in = 0.04 s


Determining initial surface intersections
-----------------------------------------

Edge intersection testing:
    Number of edges             : 4224
    Number of edges to retest   : 0
    Number of intersected edges : 0
Edge intersection testing:
    Number of edges             : 4224
    Number of edges to retest   : 4224
    Number of intersected edges : 2
Calculated surface intersections in = 0 s

Initial mesh : cells:1280  faces:4224  points:1701
Cells per refinement level:
    0	1280
Setting refinement level of surface to be consistent with curvature.
Checked curvature refinement in = 0 s


Adding patches for surface regions
----------------------------------

Patch Type                Region                        
----- ----                ------                        
motorBike:

5     wall                motorBike_frt-fairing:001%1   
6     wall                motorBike_windshield:002%2    
7     wall                motorBike_rr-wh-rim:005%5     
8     wall                motorBike_rr-wh-rim:010%10    
9     wall                motorBike_fr-wh-rim:011%11    
10    wall                motorBike_fr-wh-brake-disk:012%12
11    wall                motorBike_frame:016-shadow%13 
12    wall                motorBike_rear-susp:014%14    
13    wall                motorBike_rear-susp:014-shadow%15
14    wall                motorBike_frame:016%16        
15    wall                motorBike_rr-wh-rim:005-shadow%17
16    wall                motorBike_rr-wh-chain-hub:022%22
17    wall                motorBike_rearseat%24         
18    wall                motorBike_frt-fairing%25      
19    wall                motorBike_windshield%26       
20    wall                motorBike_headlights%27       
21    wall                motorBike_driversseat%28      
22    wall                motorBike_rear-body%29        
23    wall                motorBike_fuel-tank%30        
24    wall                motorBike_exhaust%31          
25    wall                motorBike_rr-wh-rim%32        
26    wall                motorBike_fr-mud-guard%33     
27    wall                motorBike_fr-wh-rim%34        
28    wall                motorBike_fr-wh-brake-disk%35 
29    wall                motorBike_fr-brake-caliper%36 
30    wall                motorBike_fr-wh-tyre%37       
31    wall                motorBike_hbars%38            
32    wall                motorBike_fr-forks%39         
33    wall                motorBike_chain%40            
34    wall                motorBike_rr-wh-tyre%41       
35    wall                motorBike_square-dial%42      
36    wall                motorBike_round-dial%43       
37    wall                motorBike_dial-holder%44      
38    wall                motorBike_rear-susp%45        
39    wall                motorBike_rear-brake-lights%46
40    wall                motorBike_rear-light-bracket%47
41    wall                motorBike_frame%48            
42    wall                motorBike_rear-mud-guard%49   
43    wall                motorBike_rear-susp-spring-damp%50
44    wall                motorBike_fairing-inner-plate%51
45    wall                motorBike_clutch-housing%52   
46    wall                motorBike_radiator%53         
47    wall                motorBike_water-pipe%54       
48    wall                motorBike_water-pump%55       
49    wall                motorBike_engine%56           
50    wall                motorBike_rear-shock-link%57  
51    wall                motorBike_rear-brake-fluid-pot-bracket%58
52    wall                motorBike_rear-brake-fluid-pot%59
53    wall                motorBike_footpeg%60          
54    wall                motorBike_rr-wh-chain-hub%61  
55    wall                motorBike_rear-brake-caliper%62
56    wall                motorBike_rider-helmet%65     
57    wall                motorBike_rider-visor%66      
58    wall                motorBike_rider-boots%67      
59    wall                motorBike_rider-gloves%68     
60    wall                motorBike_rider-body%69       
61    wall                motorBike_frame:0%70          
62    wall                motorBike_frt-fairing:001-shadow%74
63    wall                motorBike_windshield-shadow%75
64    wall                motorBike_fr-mud-guard-shadow%81
65    wall                motorBike_fr-wh-brake-disk-shadow%83
66    wall                motorBike_rear-mud-guard-shadow%84
67    wall                motorBike_rear-susp-spring-damp-shadow%85
68    wall                motorBike_radiator-shadow%86  
69    wall                motorBike_rear-shock-link-shadow%87
70    wall                motorBike_rear-brake-fluid-pot-bracket-shadow%88
71    wall                motorBike_rr-wh-chain-hub-shadow%89

Added patches in = 0.04 s

Edge intersection testing:
    Number of edges             : 4224
    Number of edges to retest   : 0
    Number of intersected edges : 2
Decomposition method hierarchical [6]

Refinement phase
----------------

Found point (3.0001 3.0001 0.43) in cell 21 on processor 4

Feature refinement iteration 0
------------------------------

Marked for refinement due to explicit features             : 10 cells.
Determined cells to refine in = 0.03 s
Selected for feature refinement : 10 cells (out of 1280)
Edge intersection testing:
    Number of edges             : 4479
    Number of edges to retest   : 388
    Number of intersected edges : 26
Refined mesh in = 0.01 s
After refinement feature refinement iteration 0 : cells:1350  faces:4479  points:1823
Cells per refinement level:
    0	1270
    1	80
Balanced mesh in = 0.01 s
After balancing feature refinement iteration 0 : cells:1350  faces:4479  points:1823
Cells per refinement level:
    0	1270
    1	80

Feature refinement iteration 1
------------------------------

Marked for refinement due to explicit features             : 26 cells.
Determined cells to refine in = 0.04 s
Selected for feature refinement : 32 cells (out of 1350)
Edge intersection testing:
    Number of edges             : 5259
    Number of edges to retest   : 1149
    Number of intersected edges : 127
Refined mesh in = 0 s
After refinement feature refinement iteration 1 : cells:1574  faces:5259  points:2167
Cells per refinement level:
    0	1264
    1	102
    2	208
Balanced mesh in = 0.02 s
After balancing feature refinement iteration 1 : cells:1574  faces:5259  points:2167
Cells per refinement level:
    0	1264
    1	102
    2	208

Feature refinement iteration 2
------------------------------

Marked for refinement due to explicit features             : 100 cells.
Determined cells to refine in = 0.04 s
Selected for feature refinement : 120 cells (out of 1574)
Edge intersection testing:
    Number of edges             : 8103
    Number of edges to retest   : 3798
    Number of intersected edges : 726
Refined mesh in = 0.01 s
After refinement feature refinement iteration 2 : cells:2414  faces:8103  points:3354
Cells per refinement level:
    0	1260
    1	118
    2	236
    3	800
Balanced mesh in = 0.02 s
After balancing feature refinement iteration 2 : cells:2414  faces:8103  points:3354
Cells per refinement level:
    0	1260
    1	118
    2	236
    3	800

Feature refinement iteration 3
------------------------------

Marked for refinement due to explicit features             : 447 cells.
Determined cells to refine in = 0.05 s
Selected for feature refinement : 539 cells (out of 2414)
Edge intersection testing:
    Number of edges             : 20616
    Number of edges to retest   : 16350
    Number of intersected edges : 3115
Refined mesh in = 0.03 s
After refinement feature refinement iteration 3 : cells:6187  faces:20616  points:8337
Cells per refinement level:
    0	1252
    1	159
    2	359
    3	841
    4	3576
Balanced mesh in = 0.04 s
After balancing feature refinement iteration 3 : cells:6187  faces:20616  points:8337
Cells per refinement level:
    0	1252
    1	159
    2	359
    3	841
    4	3576

Feature refinement iteration 4
------------------------------

Marked for refinement due to explicit features             : 1726 cells.
Determined cells to refine in = 0.07 s
Selected for feature refinement : 2001 cells (out of 6187)
Edge intersection testing:
    Number of edges             : 68094
    Number of edges to retest   : 62382
    Number of intersected edges : 11403
Refined mesh in = 0.06 s
After refinement feature refinement iteration 4 : cells:20194  faces:68094  points:27936
Cells per refinement level:
    0	1250
    1	168
    2	380
    3	890
    4	3698
    5	13808
Balanced mesh in = 0.08 s
After balancing feature refinement iteration 4 : cells:20194  faces:68094  points:27936
Cells per refinement level:
    0	1250
    1	168
    2	380
    3	890
    4	3698
    5	13808

Feature refinement iteration 5
------------------------------

Marked for refinement due to explicit features             : 5267 cells.
Determined cells to refine in = 0.11 s
Selected for feature refinement : 6710 cells (out of 20194)
Edge intersection testing:
    Number of edges             : 230619
    Number of edges to retest   : 222164
    Number of intersected edges : 36494
Refined mesh in = 0.13 s
After refinement feature refinement iteration 5 : cells:67164  faces:230619  points:97962
Cells per refinement level:
    0	1249
    1	175
    2	371
    3	888
    4	3516
    5	18829
    6	42136
Skipping balancing since max unbalance 0.0570842 is less than allowable 0.1

Feature refinement iteration 6
------------------------------

Marked for refinement due to explicit features             : 13633 cells.
Determined cells to refine in = 0.26 s
Selected for feature refinement : 19635 cells (out of 67164)
Edge intersection testing:
    Number of edges             : 712392
    Number of edges to retest   : 689194
    Number of intersected edges : 103926
Refined mesh in = 0.4 s
After refinement feature refinement iteration 6 : cells:204609  faces:712392  points:310672
Cells per refinement level:
    0	1246
    1	196
    2	378
    3	940
    4	3590
    5	18316
    6	70879
    7	109064
Balanced mesh in = 0.5 s
After balancing feature refinement iteration 6 : cells:204609  faces:712392  points:310672
Cells per refinement level:
    0	1246
    1	196
    2	378
    3	940
    4	3590
    5	18316
    6	70879
    7	109064

Feature refinement iteration 7
------------------------------

Marked for refinement due to explicit features             : 30736 cells.
Determined cells to refine in = 0.57 s
Selected for feature refinement : 51104 cells (out of 204609)
[mintu:555078] 23 more processes have sent help message help-mpi-btl-openib.txt / no device params found
[mintu:555078] Set MCA parameter "orte_base_help_aggregate" to 0 to see all help / error messages
[mintu:555078] 5 more processes have sent help message help-mpi-btl-openib-cpc-base.txt / no cpcs for port
Edge intersection testing:
    Number of edges             : 1980444
    Number of edges to retest   : 1897422
    Number of intersected edges : 269700
Refined mesh in = 1.04 s
After refinement feature refinement iteration 7 : cells:562337  faces:1980444  points:883182
Cells per refinement level:
    0	1246
    1	196
    2	374
    3	951
    4	3479
    5	17504
    6	78211
    7	214488
    8	245888
Skipping balancing since max unbalance 0.0409616 is less than allowable 0.1

Feature refinement iteration 8
------------------------------

Marked for refinement due to explicit features             : 64988 cells.
Determined cells to refine in = 1.83 s
Selected for feature refinement : 123606 cells (out of 562337)
Edge intersection testing:
    Number of edges             : 5059014
    Number of edges to retest   : 4766435
    Number of intersected edges : 650930
Refined mesh in = 2.84 s
After refinement feature refinement iteration 8 : cells:1427579  faces:5059014  points:2280654
Cells per refinement level:
    0	1245
    1	203
    2	378
    3	969
    4	3456
    5	16943
    6	80187
    7	258034
    8	546260
    9	519904
Skipping balancing since max unbalance 0.0864502 is less than allowable 0.1

Feature refinement iteration 9
------------------------------

Marked for refinement due to explicit features             : 131661 cells.
Determined cells to refine in = 4.83 s
Selected for feature refinement : 273794 cells (out of 1427579)
Balanced mesh in = 3.49 s
After balancing feature refinement iteration 9 : cells:1427579  faces:5059014  points:2280654
Cells per refinement level:
    0	1245
    1	203
    2	378
    3	969
    4	3456
    5	16943
    6	80187
    7	258034
    8	546260
    9	519904
Edge intersection testing:
    Number of edges             : 11895609
    Number of edges to retest   : 10917455
    Number of intersected edges : 1479969
Refined mesh in = 6.39 s
After refinement feature refinement iteration 9 : cells:3344137  faces:11895609  points:5404045
Cells per refinement level:
    0	1245
    1	203
    2	378
    3	966
    4	3415
    5	16706
    6	80339
    7	272704
    8	703914
    9	1210979
    10	1053288

Feature refinement iteration 10
------------------------------

No cells marked for refinement since reached limit 2000000.
Determined cells to refine in = 0.16 s
Selected for feature refinement : 0 cells (out of 3344137)
Stopping refining since too few cells selected.


Surface refinement iteration 0
------------------------------

No cells marked for refinement since reached limit 2000000.
Determined cells to refine in = 0.02 s
Selected for refinement : 0 cells (out of 3344137)
Stopping refining since too few cells selected.


Removing mesh beyond surface intersections
------------------------------------------

Setting cellZones according to locationsInMesh:
Location : (3.0001 3.0001 0.43)
    cellZone : none

For cellZone none found point (3.0001 3.0001 0.43) in global region 0 out of 611 regions.
--> FOAM Warning : 
    From void Foam::meshRefinement::nearestFace(const labelUList&, const Foam::bitSet&, Foam::autoPtr<Foam::mapDistribute>&, Foam::labelList&, Foam::label) const
    in file meshRefinement/meshRefinement.C at line 515
    Did not visit some faces, e.g. face 0 at (-4 -3.5 0.5)
Keeping all cells containing inside points
Selected for keeping : 2985738 cells.
Edge intersection testing:
    Number of edges             : 10981730
    Number of edges to retest   : 644040
    Number of intersected edges : 1479970

Shell refinement iteration 0
----------------------------

No cells marked for refinement since reached limit 2000000.
Determined cells to refine in = 5.98 s
Selected for internal refinement : 1108938 cells (out of 2985738)
Skipping balancing since max unbalance 0.0207281 is less than allowable 0.1
After balancing shell refinement iteration 0 : cells:2985738  faces:10981730  points:5159366
Cells per refinement level:
    0	1245
    1	203
    2	378
    3	966
    4	3342
    5	15095
    6	67472
    7	227125
    8	593004
    9	1075283
    10	1001625
Edge intersection testing:
    Number of edges             : 35853248
    Number of edges to retest   : 35603098
    Number of intersected edges : 2663139
Refined mesh in = 18.84 s
After refinement shell refinement iteration 0 : cells:10748304  faces:35853248  points:14469730
Cells per refinement level:
    0	1218
    1	365
    2	683
    3	1580
    4	4921
    5	19680
    6	99060
    7	396329
    8	1220299
    9	3332056
    10	5672113

Shell refinement iteration 1
----------------------------

No cells marked for refinement since reached limit 2000000.
Determined cells to refine in = 3.15 s
Selected for internal refinement : 635282 cells (out of 10748304)
Skipping balancing since max unbalance 0.0368524 is less than allowable 0.1
After balancing shell refinement iteration 1 : cells:10748304  faces:35853248  points:14469730
Cells per refinement level:
    0	1218
    1	365
    2	683
    3	1580
    4	4921
    5	19680
    6	99060
    7	396329
    8	1220299
    9	3332056
    10	5672113
Edge intersection testing:
    Number of edges             : 49960226
    Number of edges to retest   : 34843825
    Number of intersected edges : 3377619
Refined mesh in = 24.72 s
After refinement shell refinement iteration 1 : cells:15195278  faces:49960226  points:19669886
Cells per refinement level:
    0	1199
    1	475
    2	951
    3	1949
    4	5687
    5	21280
    6	110012
    7	470087
    8	1549559
    9	4195550
    10	8838529

Shell refinement iteration 2
----------------------------

No cells marked for refinement since reached limit 2000000.
Determined cells to refine in = 3.88 s
Selected for internal refinement : 94259 cells (out of 15195278)
Skipping balancing since max unbalance 0.0394719 is less than allowable 0.1
After balancing shell refinement iteration 2 : cells:15195278  faces:49960226  points:19669886
Cells per refinement level:
    0	1199
    1	475
    2	951
    3	1949
    4	5687
    5	21280
    6	110012
    7	470087
    8	1549559
    9	4195550
    10	8838529
Edge intersection testing:
    Number of edges             : 51995459
    Number of edges to retest   : 7148831
    Number of intersected edges : 3437198
Refined mesh in = 20.24 s
After refinement shell refinement iteration 2 : cells:15855091  faces:51995459  points:20381581
Cells per refinement level:
    0	1180
    1	604
    2	1092
    3	2175
    4	6290
    5	22721
    6	114107
    7	500790
    8	1648686
    9	4597245
    10	8960201

Shell refinement iteration 3
----------------------------

No cells marked for refinement since reached limit 2000000.
Determined cells to refine in = 3.86 s
Selected for internal refinement : 20508 cells (out of 15855091)
Skipping balancing since max unbalance 0.0400628 is less than allowable 0.1
After balancing shell refinement iteration 3 : cells:15855091  faces:51995459  points:20381581
Cells per refinement level:
    0	1180
    1	604
    2	1092
    3	2175
    4	6290
    5	22721
    6	114107
    7	500790
    8	1648686
    9	4597245
    10	8960201
Edge intersection testing:
    Number of edges             : 52438994
    Number of edges to retest   : 1586543
    Number of intersected edges : 3451333
Refined mesh in = 19.16 s
After refinement shell refinement iteration 3 : cells:15998647  faces:52438994  points:20537159
Cells per refinement level:
    0	1172
    1	666
    2	1073
    3	2405
    4	6538
    5	23366
    6	116690
    7	509245
    8	1705888
    9	4606747
    10	9024857

Shell refinement iteration 4
----------------------------

No cells marked for refinement since reached limit 2000000.
Determined cells to refine in = 3.93 s
Selected for internal refinement : 8060 cells (out of 15998647)
Skipping balancing since max unbalance 0.0399595 is less than allowable 0.1
After balancing shell refinement iteration 4 : cells:15998647  faces:52438994  points:20537159
Cells per refinement level:
    0	1172
    1	666
    2	1073
    3	2405
    4	6538
    5	23366
    6	116690
    7	509245
    8	1705888
    9	4606747
    10	9024857
Edge intersection testing:
    Number of edges             : 52616309
    Number of edges to retest   : 570486
    Number of intersected edges : 3459054
Refined mesh in = 19.06 s
After refinement shell refinement iteration 4 : cells:16055067  faces:52616309  points:20601325
Cells per refinement level:
    0	1170
    1	675
    2	1112
    3	2511
    4	6712
    5	23705
    6	117409
    7	515286
    8	1707593
    9	4606565
    10	9072329

Shell refinement iteration 5
----------------------------

No cells marked for refinement since reached limit 2000000.
Determined cells to refine in = 3.92 s
Selected for internal refinement : 5379 cells (out of 16055067)
Skipping balancing since max unbalance 0.0396481 is less than allowable 0.1
After balancing shell refinement iteration 5 : cells:16055067  faces:52616309  points:20601325
Cells per refinement level:
    0	1170
    1	675
    2	1112
    3	2511
    4	6712
    5	23705
    6	117409
    7	515286
    8	1707593
    9	4606565
    10	9072329
Edge intersection testing:
    Number of edges             : 52735484
    Number of edges to retest   : 359426
    Number of intersected edges : 3464755
Refined mesh in = 18.32 s
After refinement shell refinement iteration 5 : cells:16092720  faces:52735484  points:20644954
Cells per refinement level:
    0	1164
    1	720
    2	1121
    3	2623
    4	6756
    5	23804
    6	117872
    7	515389
    8	1707777
    9	4606749
    10	9108745

Shell refinement iteration 6
----------------------------

No cells marked for refinement since reached limit 2000000.
Determined cells to refine in = 3.93 s
Selected for internal refinement : 4104 cells (out of 16092720)
Skipping balancing since max unbalance 0.0391997 is less than allowable 0.1
After balancing shell refinement iteration 6 : cells:16092720  faces:52735484  points:20644954
Cells per refinement level:
    0	1164
    1	720
    2	1121
    3	2623
    4	6756
    5	23804
    6	117872
    7	515389
    8	1707777
    9	4606749
    10	9108745
Edge intersection testing:
    Number of edges             : 52826750
    Number of edges to retest   : 274126
    Number of intersected edges : 3469248
Refined mesh in = 17.99 s
After refinement shell refinement iteration 6 : cells:16121448  faces:52826750  points:20678610
Cells per refinement level:
    0	1164
    1	719
    2	1126
    3	2645
    4	6770
    5	23818
    6	117883
    7	515337
    8	1708048
    9	4606937
    10	9137001

Shell refinement iteration 7
----------------------------

No cells marked for refinement since reached limit 2000000.
Determined cells to refine in = 4.06 s
Selected for internal refinement : 3329 cells (out of 16121448)
Skipping balancing since max unbalance 0.0390022 is less than allowable 0.1
After balancing shell refinement iteration 7 : cells:16121448  faces:52826750  points:20678610
Cells per refinement level:
    0	1164
    1	719
    2	1126
    3	2645
    4	6770
    5	23818
    6	117883
    7	515337
    8	1708048
    9	4606937
    10	9137001
Edge intersection testing:
    Number of edges             : 52900943
    Number of edges to retest   : 222868
    Number of intersected edges : 3472812
Refined mesh in = 18.44 s
After refinement shell refinement iteration 7 : cells:16144751  faces:52900943  points:20706113
Cells per refinement level:
    0	1163
    1	725
    2	1142
    3	2645
    4	6770
    5	23818
    6	117872
    7	515340
    8	1708364
    9	4606983
    10	9159929

Shell refinement iteration 8
----------------------------

No cells marked for refinement since reached limit 2000000.
Determined cells to refine in = 4.01 s
Selected for internal refinement : 3089 cells (out of 16144751)
Skipping balancing since max unbalance 0.0386431 is less than allowable 0.1
After balancing shell refinement iteration 8 : cells:16144751  faces:52900943  points:20706113
Cells per refinement level:
    0	1163
    1	725
    2	1142
    3	2645
    4	6770
    5	23818
    6	117872
    7	515340
    8	1708364
    9	4606983
    10	9159929
Edge intersection testing:
    Number of edges             : 52969907
    Number of edges to retest   : 202669
    Number of intersected edges : 3476180
Refined mesh in = 18.09 s
After refinement shell refinement iteration 8 : cells:16166374  faces:52969907  points:20731726
Cells per refinement level:
    0	1161
    1	741
    2	1142
    3	2645
    4	6770
    5	23817
    6	117873
    7	515340
    8	1708453
    9	4607191
    10	9181241

Shell refinement iteration 9
----------------------------

No cells marked for refinement since reached limit 2000000.
Determined cells to refine in = 3.86 s
Selected for internal refinement : 2589 cells (out of 16166374)
Skipping balancing since max unbalance 0.0383961 is less than allowable 0.1
After balancing shell refinement iteration 9 : cells:16166374  faces:52969907  points:20731726
Cells per refinement level:
    0	1161
    1	741
    2	1142
    3	2645
    4	6770
    5	23817
    6	117873
    7	515340
    8	1708453
    9	4607191
    10	9181241
Edge intersection testing:
    Number of edges             : 53027396
    Number of edges to retest   : 171650
    Number of intersected edges : 3479000
Refined mesh in = 18.43 s
After refinement shell refinement iteration 9 : cells:16184497  faces:53027396  points:20752855
Cells per refinement level:
    0	1161
    1	741
    2	1142
    3	2645
    4	6770
    5	23815
    6	117883
    7	515348
    8	1708465
    9	4607422
    10	9199105

Shell refinement iteration 10
----------------------------

No cells marked for refinement since reached limit 2000000.
Determined cells to refine in = 3.93 s
Selected for internal refinement : 2192 cells (out of 16184497)
Skipping balancing since max unbalance 0.0381246 is less than allowable 0.1
After balancing shell refinement iteration 10 : cells:16184497  faces:53027396  points:20752855
Cells per refinement level:
    0	1161
    1	741
    2	1142
    3	2645
    4	6770
    5	23815
    6	117883
    7	515348
    8	1708465
    9	4607422
    10	9199105
Edge intersection testing:
    Number of edges             : 53076038
    Number of edges to retest   : 143596
    Number of intersected edges : 3481376
Refined mesh in = 18.33 s
After refinement shell refinement iteration 10 : cells:16199841  faces:53076038  points:20770719
Cells per refinement level:
    0	1161
    1	741
    2	1142
    3	2645
    4	6769
    5	23823
    6	117881
    7	515323
    8	1708557
    9	4607398
    10	9214401

Shell refinement iteration 11
----------------------------

No cells marked for refinement since reached limit 2000000.
Determined cells to refine in = 3.97 s
Selected for internal refinement : 1684 cells (out of 16199841)
Skipping balancing since max unbalance 0.0379173 is less than allowable 0.1
After balancing shell refinement iteration 11 : cells:16199841  faces:53076038  points:20770719
Cells per refinement level:
    0	1161
    1	741
    2	1142
    3	2645
    4	6769
    5	23823
    6	117881
    7	515323
    8	1708557
    9	4607398
    10	9214401
Edge intersection testing:
    Number of edges             : 53113370
    Number of edges to retest   : 112461
    Number of intersected edges : 3483196
Refined mesh in = 17.35 s
After refinement shell refinement iteration 11 : cells:16211629  faces:53113370  points:20784407
Cells per refinement level:
    0	1161
    1	741
    2	1142
    3	2645
    4	6769
    5	23823
    6	117881
    7	515294
    8	1708596
    9	4607480
    10	9226097

Shell refinement iteration 12
----------------------------

No cells marked for refinement since reached limit 2000000.
Determined cells to refine in = 3.85 s
Selected for internal refinement : 1320 cells (out of 16211629)
Skipping balancing since max unbalance 0.0377041 is less than allowable 0.1
After balancing shell refinement iteration 12 : cells:16211629  faces:53113370  points:20784407
Cells per refinement level:
    0	1161
    1	741
    2	1142
    3	2645
    4	6769
    5	23823
    6	117881
    7	515294
    8	1708596
    9	4607480
    10	9226097
Edge intersection testing:
    Number of edges             : 53142776
    Number of edges to retest   : 88278
    Number of intersected edges : 3484672
Refined mesh in = 17.87 s
After refinement shell refinement iteration 12 : cells:16220869  faces:53142776  points:20795306
Cells per refinement level:
    0	1161
    1	741
    2	1142
    3	2645
    4	6769
    5	23823
    6	117880
    7	515279
    8	1708623
    9	4607597
    10	9235209

Shell refinement iteration 13
----------------------------

No cells marked for refinement since reached limit 2000000.
Determined cells to refine in = 3.87 s
Selected for internal refinement : 1117 cells (out of 16220869)
Skipping balancing since max unbalance 0.0375906 is less than allowable 0.1
After balancing shell refinement iteration 13 : cells:16220869  faces:53142776  points:20795306
Cells per refinement level:
    0	1161
    1	741
    2	1142
    3	2645
    4	6769
    5	23823
    6	117880
    7	515279
    8	1708623
    9	4607597
    10	9235209
Edge intersection testing:
    Number of edges             : 53167715
    Number of edges to retest   : 73659
    Number of intersected edges : 3485987
Refined mesh in = 17.73 s
After refinement shell refinement iteration 13 : cells:16228688  faces:53167715  points:20804579
Cells per refinement level:
    0	1161
    1	741
    2	1142
    3	2645
    4	6769
    5	23823
    6	117878
    7	515275
    8	1708651
    9	4607690
    10	9242913

Shell refinement iteration 14
----------------------------

No cells marked for refinement since reached limit 2000000.
Determined cells to refine in = 3.93 s
Selected for internal refinement : 950 cells (out of 16228688)
Skipping balancing since max unbalance 0.037395 is less than allowable 0.1
After balancing shell refinement iteration 14 : cells:16228688  faces:53167715  points:20804579
Cells per refinement level:
    0	1161
    1	741
    2	1142
    3	2645
    4	6769
    5	23823
    6	117878
    7	515275
    8	1708651
    9	4607690
    10	9242913
Edge intersection testing:
    Number of edges             : 53188910
    Number of edges to retest   : 62851
    Number of intersected edges : 3487160
Refined mesh in = 18.19 s
After refinement shell refinement iteration 14 : cells:16235338  faces:53188910  points:20812446
Cells per refinement level:
    0	1161
    1	741
    2	1142
    3	2645
    4	6769
    5	23823
    6	117877
    7	515265
    8	1708684
    9	4607758
    10	9249473

Shell refinement iteration 15
----------------------------

No cells marked for refinement since reached limit 2000000.
Determined cells to refine in = 3.93 s
Selected for internal refinement : 790 cells (out of 16235338)
Skipping balancing since max unbalance 0.0373038 is less than allowable 0.1
After balancing shell refinement iteration 15 : cells:16235338  faces:53188910  points:20812446
Cells per refinement level:
    0	1161
    1	741
    2	1142
    3	2645
    4	6769
    5	23823
    6	117877
    7	515265
    8	1708684
    9	4607758
    10	9249473
Edge intersection testing:
    Number of edges             : 53206568
    Number of edges to retest   : 52658
    Number of intersected edges : 3488151
Refined mesh in = 17.98 s
After refinement shell refinement iteration 15 : cells:16240868  faces:53206568  points:20819029
Cells per refinement level:
    0	1161
    1	741
    2	1142
    3	2645
    4	6769
    5	23823
    6	117875
    7	515266
    8	1708718
    9	4607759
    10	9254969

Shell refinement iteration 16
----------------------------

No cells marked for refinement since reached limit 2000000.
Determined cells to refine in = 3.92 s
Selected for internal refinement : 713 cells (out of 16240868)
Skipping balancing since max unbalance 0.0372273 is less than allowable 0.1
After balancing shell refinement iteration 16 : cells:16240868  faces:53206568  points:20819029
Cells per refinement level:
    0	1161
    1	741
    2	1142
    3	2645
    4	6769
    5	23823
    6	117875
    7	515266
    8	1708718
    9	4607759
    10	9254969
Edge intersection testing:
    Number of edges             : 53222600
    Number of edges to retest   : 46983
    Number of intersected edges : 3489048
Refined mesh in = 18.41 s
After refinement shell refinement iteration 16 : cells:16245859  faces:53222600  points:20825082
Cells per refinement level:
    0	1161
    1	741
    2	1142
    3	2645
    4	6769
    5	23822
    6	117883
    7	515254
    8	1708738
    9	4607743
    10	9259961

Shell refinement iteration 17
----------------------------

No cells marked for refinement since reached limit 2000000.
Determined cells to refine in = 4.03 s
Selected for internal refinement : 652 cells (out of 16245859)
Skipping balancing since max unbalance 0.0370738 is less than allowable 0.1
After balancing shell refinement iteration 17 : cells:16245859  faces:53222600  points:20825082
Cells per refinement level:
    0	1161
    1	741
    2	1142
    3	2645
    4	6769
    5	23822
    6	117883
    7	515254
    8	1708738
    9	4607743
    10	9259961
Edge intersection testing:
    Number of edges             : 53237258
    Number of edges to retest   : 42786
    Number of intersected edges : 3489903
Refined mesh in = 18.28 s
After refinement shell refinement iteration 17 : cells:16250423  faces:53237258  points:20830601
Cells per refinement level:
    0	1161
    1	741
    2	1142
    3	2645
    4	6769
    5	23822
    6	117882
    7	515250
    8	1708771
    9	4607671
    10	9264569

Shell refinement iteration 18
----------------------------

No cells marked for refinement since reached limit 2000000.
Determined cells to refine in = 3.9 s
Selected for internal refinement : 599 cells (out of 16250423)
Skipping balancing since max unbalance 0.036976 is less than allowable 0.1
After balancing shell refinement iteration 18 : cells:16250423  faces:53237258  points:20830601
Cells per refinement level:
    0	1161
    1	741
    2	1142
    3	2645
    4	6769
    5	23822
    6	117882
    7	515250
    8	1708771
    9	4607671
    10	9264569
Edge intersection testing:
    Number of edges             : 53250635
    Number of edges to retest   : 39668
    Number of intersected edges : 3490631
Refined mesh in = 18.46 s
After refinement shell refinement iteration 18 : cells:16254616  faces:53250635  points:20835581
Cells per refinement level:
    0	1161
    1	741
    2	1142
    3	2645
    4	6769
    5	23821
    6	117889
    7	515244
    8	1708814
    9	4607709
    10	9268681

Shell refinement iteration 19
----------------------------

No cells marked for refinement since reached limit 2000000.
Determined cells to refine in = 3.98 s
Selected for internal refinement : 558 cells (out of 16254616)
Skipping balancing since max unbalance 0.0368302 is less than allowable 0.1
After balancing shell refinement iteration 19 : cells:16254616  faces:53250635  points:20835581
Cells per refinement level:
    0	1161
    1	741
    2	1142
    3	2645
    4	6769
    5	23821
    6	117889
    7	515244
    8	1708814
    9	4607709
    10	9268681
Edge intersection testing:
    Number of edges             : 53263160
    Number of edges to retest   : 37035
    Number of intersected edges : 3491359
Refined mesh in = 17.29 s
After refinement shell refinement iteration 19 : cells:16258522  faces:53263160  points:20840290
Cells per refinement level:
    0	1161
    1	741
    2	1142
    3	2645
    4	6769
    5	23820
    6	117896
    7	515241
    8	1708843
    9	4607695
    10	9272569

Shell refinement iteration 20
----------------------------

No cells marked for refinement since reached limit 2000000.
Determined cells to refine in = 3.91 s
Selected for internal refinement : 454 cells (out of 16258522)
Skipping balancing since max unbalance 0.0367601 is less than allowable 0.1
After balancing shell refinement iteration 20 : cells:16258522  faces:53263160  points:20840290
Cells per refinement level:
    0	1161
    1	741
    2	1142
    3	2645
    4	6769
    5	23820
    6	117896
    7	515241
    8	1708843
    9	4607695
    10	9272569
Edge intersection testing:
    Number of edges             : 53273381
    Number of edges to retest   : 29696
    Number of intersected edges : 3491976
Refined mesh in = 17.79 s
After refinement shell refinement iteration 20 : cells:16261700  faces:53273381  points:20844145
Cells per refinement level:
    0	1161
    1	741
    2	1142
    3	2645
    4	6769
    5	23820
    6	117896
    7	515236
    8	1708843
    9	4607606
    10	9275841

Shell refinement iteration 21
----------------------------

No cells marked for refinement since reached limit 2000000.
Determined cells to refine in = 3.94 s
Selected for internal refinement : 413 cells (out of 16261700)
Skipping balancing since max unbalance 0.0366963 is less than allowable 0.1
After balancing shell refinement iteration 21 : cells:16261700  faces:53273381  points:20844145
Cells per refinement level:
    0	1161
    1	741
    2	1142
    3	2645
    4	6769
    5	23820
    6	117896
    7	515236
    8	1708843
    9	4607606
    10	9275841
Edge intersection testing:
    Number of edges             : 53282663
    Number of edges to retest   : 27105
    Number of intersected edges : 3492542
Refined mesh in = 18.27 s
After refinement shell refinement iteration 21 : cells:16264591  faces:53282663  points:20847633
Cells per refinement level:
    0	1161
    1	741
    2	1142
    3	2645
    4	6769
    5	23820
    6	117896
    7	515232
    8	1708840
    9	4607512
    10	9278833

Shell refinement iteration 22
----------------------------

No cells marked for refinement since reached limit 2000000.
Determined cells to refine in = 3.96 s
Selected for internal refinement : 408 cells (out of 16264591)
Skipping balancing since max unbalance 0.0365815 is less than allowable 0.1
After balancing shell refinement iteration 22 : cells:16264591  faces:53282663  points:20847633
Cells per refinement level:
    0	1161
    1	741
    2	1142
    3	2645
    4	6769
    5	23820
    6	117896
    7	515232
    8	1708840
    9	4607512
    10	9278833
Edge intersection testing:
    Number of edges             : 53291819
    Number of edges to retest   : 26112
    Number of intersected edges : 3493085
Refined mesh in = 17.96 s
After refinement shell refinement iteration 22 : cells:16267447  faces:53291819  points:20851080
Cells per refinement level:
    0	1161
    1	741
    2	1142
    3	2645
    4	6769
    5	23820
    6	117896
    7	515223
    8	1708881
    9	4607392
    10	9281777

Shell refinement iteration 23
----------------------------

No cells marked for refinement since reached limit 2000000.
Determined cells to refine in = 3.97 s
Selected for internal refinement : 334 cells (out of 16267447)
Skipping balancing since max unbalance 0.036534 is less than allowable 0.1
After balancing shell refinement iteration 23 : cells:16267447  faces:53291819  points:20851080
Cells per refinement level:
    0	1161
    1	741
    2	1142
    3	2645
    4	6769
    5	23820
    6	117896
    7	515223
    8	1708881
    9	4607392
    10	9281777
Edge intersection testing:
    Number of edges             : 53299319
    Number of edges to retest   : 22429
    Number of intersected edges : 3493550
Refined mesh in = 17.87 s
After refinement shell refinement iteration 23 : cells:16269785  faces:53299319  points:20853902
Cells per refinement level:
    0	1161
    1	741
    2	1142
    3	2645
    4	6769
    5	23820
    6	117896
    7	515219
    8	1708877
    9	4607386
    10	9284129

Shell refinement iteration 24
----------------------------

No cells marked for refinement since reached limit 2000000.
Determined cells to refine in = 3.98 s
Selected for internal refinement : 331 cells (out of 16269785)
Skipping balancing since max unbalance 0.0364544 is less than allowable 0.1
After balancing shell refinement iteration 24 : cells:16269785  faces:53299319  points:20853902
Cells per refinement level:
    0	1161
    1	741
    2	1142
    3	2645
    4	6769
    5	23820
    6	117896
    7	515219
    8	1708877
    9	4607386
    10	9284129
Edge intersection testing:
    Number of edges             : 53306744
    Number of edges to retest   : 21857
    Number of intersected edges : 3493973
Refined mesh in = 17.1 s
After refinement shell refinement iteration 24 : cells:16272102  faces:53306744  points:20856690
Cells per refinement level:
    0	1161
    1	741
    2	1142
    3	2645
    4	6769
    5	23820
    6	117896
    7	515210
    8	1708923
    9	4607298
    10	9286497

Shell refinement iteration 25
----------------------------

No cells marked for refinement since reached limit 2000000.
Determined cells to refine in = 3.94 s
Selected for internal refinement : 270 cells (out of 16272102)
Skipping balancing since max unbalance 0.0364218 is less than allowable 0.1
After balancing shell refinement iteration 25 : cells:16272102  faces:53306744  points:20856690
Cells per refinement level:
    0	1161
    1	741
    2	1142
    3	2645
    4	6769
    5	23820
    6	117896
    7	515210
    8	1708923
    9	4607298
    10	9286497
Edge intersection testing:
    Number of edges             : 53312834
    Number of edges to retest   : 18031
    Number of intersected edges : 3494381
Refined mesh in = 17.78 s
After refinement shell refinement iteration 25 : cells:16273992  faces:53312834  points:20858992
Cells per refinement level:
    0	1161
    1	741
    2	1142
    3	2645
    4	6769
    5	23820
    6	117895
    7	515215
    8	1708922
    9	4607257
    10	9288425

Shell refinement iteration 26
----------------------------

No cells marked for refinement since reached limit 2000000.
Determined cells to refine in = 3.98 s
Selected for internal refinement : 253 cells (out of 16273992)
Skipping balancing since max unbalance 0.0363873 is less than allowable 0.1
After balancing shell refinement iteration 26 : cells:16273992  faces:53312834  points:20858992
Cells per refinement level:
    0	1161
    1	741
    2	1142
    3	2645
    4	6769
    5	23820
    6	117895
    7	515215
    8	1708922
    9	4607257
    10	9288425
Edge intersection testing:
    Number of edges             : 53318531
    Number of edges to retest   : 16780
    Number of intersected edges : 3494772
Refined mesh in = 18.02 s
After refinement shell refinement iteration 26 : cells:16275763  faces:53318531  points:20861145
Cells per refinement level:
    0	1161
    1	741
    2	1142
    3	2645
    4	6769
    5	23820
    6	117895
    7	515207
    8	1708971
    9	4607147
    10	9290265

Shell refinement iteration 27
----------------------------

No cells marked for refinement since reached limit 2000000.
Determined cells to refine in = 3.85 s
Selected for internal refinement : 230 cells (out of 16275763)
Skipping balancing since max unbalance 0.0363871 is less than allowable 0.1
After balancing shell refinement iteration 27 : cells:16275763  faces:53318531  points:20861145
Cells per refinement level:
    0	1161
    1	741
    2	1142
    3	2645
    4	6769
    5	23820
    6	117895
    7	515207
    8	1708971
    9	4607147
    10	9290265
Edge intersection testing:
    Number of edges             : 53323664
    Number of edges to retest   : 15703
    Number of intersected edges : 3495106
Refined mesh in = 17.99 s
After refinement shell refinement iteration 27 : cells:16277373  faces:53323664  points:20863055
Cells per refinement level:
    0	1161
    1	741
    2	1142
    3	2645
    4	6769
    5	23820
    6	117895
    7	515202
    8	1708985
    9	4607156
    10	9291857

Shell refinement iteration 28
----------------------------

No cells marked for refinement since reached limit 2000000.
Determined cells to refine in = 4.03 s
Selected for internal refinement : 172 cells (out of 16277373)
Skipping balancing since max unbalance 0.0363604 is less than allowable 0.1
After balancing shell refinement iteration 28 : cells:16277373  faces:53323664  points:20863055
Cells per refinement level:
    0	1161
    1	741
    2	1142
    3	2645
    4	6769
    5	23820
    6	117895
    7	515202
    8	1708985
    9	4607156
    10	9291857
Edge intersection testing:
    Number of edges             : 53327540
    Number of edges to retest   : 11439
    Number of intersected edges : 3495367
Refined mesh in = 17.95 s
After refinement shell refinement iteration 28 : cells:16278577  faces:53327540  points:20864521
Cells per refinement level:
    0	1161
    1	741
    2	1142
    3	2645
    4	6769
    5	23820
    6	117895
    7	515201
    8	1708983
    9	4607075
    10	9293145

Shell refinement iteration 29
----------------------------

No cells marked for refinement since reached limit 2000000.
Determined cells to refine in = 3.97 s
Selected for internal refinement : 171 cells (out of 16278577)
Skipping balancing since max unbalance 0.0363383 is less than allowable 0.1
After balancing shell refinement iteration 29 : cells:16278577  faces:53327540  points:20864521
Cells per refinement level:
    0	1161
    1	741
    2	1142
    3	2645
    4	6769
    5	23820
    6	117895
    7	515201
    8	1708983
    9	4607075
    10	9293145
Edge intersection testing:
    Number of edges             : 53331401
    Number of edges to retest   : 11205
    Number of intersected edges : 3495630
Refined mesh in = 17.07 s
After refinement shell refinement iteration 29 : cells:16279774  faces:53331401  points:20865988
Cells per refinement level:
    0	1161
    1	741
    2	1142
    3	2645
    4	6769
    5	23820
    6	117895
    7	515199
    8	1708986
    9	4607023
    10	9294393

Shell refinement iteration 30
----------------------------

No cells marked for refinement since reached limit 2000000.
Determined cells to refine in = 3.95 s
Selected for internal refinement : 170 cells (out of 16279774)
Skipping balancing since max unbalance 0.0362798 is less than allowable 0.1
After balancing shell refinement iteration 30 : cells:16279774  faces:53331401  points:20865988
Cells per refinement level:
    0	1161
    1	741
    2	1142
    3	2645
    4	6769
    5	23820
    6	117895
    7	515199
    8	1708986
    9	4607023
    10	9294393
Edge intersection testing:
    Number of edges             : 53335265
    Number of edges to retest   : 10950
    Number of intersected edges : 3495897
Refined mesh in = 17.07 s
After refinement shell refinement iteration 30 : cells:16280964  faces:53335265  points:20867477
Cells per refinement level:
    0	1161
    1	741
    2	1142
    3	2645
    4	6769
    5	23820
    6	117895
    7	515194
    8	1709015
    9	4606957
    10	9295625

Shell refinement iteration 31
----------------------------

No cells marked for refinement since reached limit 2000000.
Determined cells to refine in = 3.93 s
Selected for internal refinement : 139 cells (out of 16280964)
Skipping balancing since max unbalance 0.0362677 is less than allowable 0.1
After balancing shell refinement iteration 31 : cells:16280964  faces:53335265  points:20867477
Cells per refinement level:
    0	1161
    1	741
    2	1142
    3	2645
    4	6769
    5	23820
    6	117895
    7	515194
    8	1709015
    9	4606957
    10	9295625
Edge intersection testing:
    Number of edges             : 53338385
    Number of edges to retest   : 9428
    Number of intersected edges : 3496089
Refined mesh in = 16.47 s
After refinement shell refinement iteration 31 : cells:16281937  faces:53338385  points:20868643
Cells per refinement level:
    0	1161
    1	741
    2	1142
    3	2645
    4	6769
    5	23820
    6	117895
    7	515192
    8	1709021
    9	4606910
    10	9296641

Shell refinement iteration 32
----------------------------

No cells marked for refinement since reached limit 2000000.
Determined cells to refine in = 3.97 s
Selected for internal refinement : 138 cells (out of 16281937)
Skipping balancing since max unbalance 0.0362217 is less than allowable 0.1
After balancing shell refinement iteration 32 : cells:16281937  faces:53338385  points:20868643
Cells per refinement level:
    0	1161
    1	741
    2	1142
    3	2645
    4	6769
    5	23820
    6	117895
    7	515192
    8	1709021
    9	4606910
    10	9296641
Edge intersection testing:
    Number of edges             : 53341505
    Number of edges to retest   : 8836
    Number of intersected edges : 3496270
Refined mesh in = 17.36 s
After refinement shell refinement iteration 32 : cells:16282903  faces:53341505  points:20869830
Cells per refinement level:
    0	1161
    1	741
    2	1142
    3	2645
    4	6769
    5	23820
    6	117895
    7	515191
    8	1709021
    9	4606845
    10	9297673

Shell refinement iteration 33
----------------------------

No cells marked for refinement since reached limit 2000000.
Determined cells to refine in = 3.98 s
Selected for internal refinement : 121 cells (out of 16282903)
Skipping balancing since max unbalance 0.0361868 is less than allowable 0.1
After balancing shell refinement iteration 33 : cells:16282903  faces:53341505  points:20869830
Cells per refinement level:
    0	1161
    1	741
    2	1142
    3	2645
    4	6769
    5	23820
    6	117895
    7	515191
    8	1709021
    9	4606845
    10	9297673
Edge intersection testing:
    Number of edges             : 53344220
    Number of edges to retest   : 8191
    Number of intersected edges : 3496440
Refined mesh in = 17.53 s
After refinement shell refinement iteration 33 : cells:16283750  faces:53344220  points:20870852
Cells per refinement level:
    0	1161
    1	741
    2	1142
    3	2645
    4	6769
    5	23820
    6	117895
    7	515189
    8	1709027
    9	4606816
    10	9298545

Shell refinement iteration 34
----------------------------

No cells marked for refinement since reached limit 2000000.
Determined cells to refine in = 4.11 s
Selected for internal refinement : 122 cells (out of 16283750)
Skipping balancing since max unbalance 0.0361419 is less than allowable 0.1
After balancing shell refinement iteration 34 : cells:16283750  faces:53344220  points:20870852
Cells per refinement level:
    0	1161
    1	741
    2	1142
    3	2645
    4	6769
    5	23820
    6	117895
    7	515189
    8	1709027
    9	4606816
    10	9298545
Edge intersection testing:
    Number of edges             : 53346980
    Number of edges to retest   : 7878
    Number of intersected edges : 3496627
Refined mesh in = 18.07 s
After refinement shell refinement iteration 34 : cells:16284604  faces:53346980  points:20871905
Cells per refinement level:
    0	1161
    1	741
    2	1142
    3	2645
    4	6769
    5	23820
    6	117895
    7	515187
    8	1709035
    9	4606768
    10	9299441

Shell refinement iteration 35
----------------------------

No cells marked for refinement since reached limit 2000000.
Determined cells to refine in = 3.89 s
Selected for internal refinement : 107 cells (out of 16284604)
Skipping balancing since max unbalance 0.0361114 is less than allowable 0.1
After balancing shell refinement iteration 35 : cells:16284604  faces:53346980  points:20871905
Cells per refinement level:
    0	1161
    1	741
    2	1142
    3	2645
    4	6769
    5	23820
    6	117895
    7	515187
    8	1709035
    9	4606768
    10	9299441
Edge intersection testing:
    Number of edges             : 53349389
    Number of edges to retest   : 7215
    Number of intersected edges : 3496784
Refined mesh in = 18.02 s
After refinement shell refinement iteration 35 : cells:16285353  faces:53349389  points:20872815
Cells per refinement level:
    0	1161
    1	741
    2	1142
    3	2645
    4	6769
    5	23820
    6	117895
    7	515186
    8	1709033
    9	4606752
    10	9300209

Shell refinement iteration 36
----------------------------

No cells marked for refinement since reached limit 2000000.
Determined cells to refine in = 3.92 s
Selected for internal refinement : 115 cells (out of 16285353)
Skipping balancing since max unbalance 0.0360585 is less than allowable 0.1
After balancing shell refinement iteration 36 : cells:16285353  faces:53349389  points:20872815
Cells per refinement level:
    0	1161
    1	741
    2	1142
    3	2645
    4	6769
    5	23820
    6	117895
    7	515186
    8	1709033
    9	4606752
    10	9300209
Edge intersection testing:
    Number of edges             : 53352002
    Number of edges to retest   : 7432
    Number of intersected edges : 3496940
Refined mesh in = 17.04 s
After refinement shell refinement iteration 36 : cells:16286158  faces:53352002  points:20873818
Cells per refinement level:
    0	1161
    1	741
    2	1142
    3	2645
    4	6769
    5	23820
    6	117895
    7	515184
    8	1709042
    9	4606702
    10	9301057

Shell refinement iteration 37
----------------------------

No cells marked for refinement since reached limit 2000000.
Determined cells to refine in = 4.01 s
Selected for internal refinement : 106 cells (out of 16286158)
Skipping balancing since max unbalance 0.0359992 is less than allowable 0.1
After balancing shell refinement iteration 37 : cells:16286158  faces:53352002  points:20873818
Cells per refinement level:
    0	1161
    1	741
    2	1142
    3	2645
    4	6769
    5	23820
    6	117895
    7	515184
    8	1709042
    9	4606702
    10	9301057
Edge intersection testing:
    Number of edges             : 53354399
    Number of edges to retest   : 6930
    Number of intersected edges : 3497090
Refined mesh in = 16.96 s
After refinement shell refinement iteration 37 : cells:16286900  faces:53354399  points:20874728
Cells per refinement level:
    0	1161
    1	741
    2	1142
    3	2645
    4	6769
    5	23820
    6	117895
    7	515183
    8	1709043
    9	4606660
    10	9301841

Shell refinement iteration 38
----------------------------

No cells marked for refinement since reached limit 2000000.
Determined cells to refine in = 4.05 s
Selected for internal refinement : 73 cells (out of 16286900)
Skipping balancing since max unbalance 0.0359728 is less than allowable 0.1
After balancing shell refinement iteration 38 : cells:16286900  faces:53354399  points:20874728
Cells per refinement level:
    0	1161
    1	741
    2	1142
    3	2645
    4	6769
    5	23820
    6	117895
    7	515183
    8	1709043
    9	4606660
    10	9301841
Edge intersection testing:
    Number of edges             : 53356049
    Number of edges to retest   : 4915
    Number of intersected edges : 3497189
Refined mesh in = 17.32 s
After refinement shell refinement iteration 38 : cells:16287411  faces:53356049  points:20875356
Cells per refinement level:
    0	1161
    1	741
    2	1142
    3	2645
    4	6769
    5	23820
    6	117895
    7	515182
    8	1709048
    9	4606615
    10	9302393

Shell refinement iteration 39
----------------------------

No cells marked for refinement since reached limit 2000000.
Determined cells to refine in = 3.91 s
Selected for internal refinement : 102 cells (out of 16287411)
Skipping balancing since max unbalance 0.0358912 is less than allowable 0.1
After balancing shell refinement iteration 39 : cells:16287411  faces:53356049  points:20875356
Cells per refinement level:
    0	1161
    1	741
    2	1142
    3	2645
    4	6769
    5	23820
    6	117895
    7	515182
    8	1709048
    9	4606615
    10	9302393
Edge intersection testing:
    Number of edges             : 53358371
    Number of edges to retest   : 6353
    Number of intersected edges : 3497333
Refined mesh in = 16.89 s
After refinement shell refinement iteration 39 : cells:16288125  faces:53358371  points:20876253
Cells per refinement level:
    0	1161
    1	741
    2	1142
    3	2645
    4	6769
    5	23820
    6	117895
    7	515182
    8	1709040
    9	4606585
    10	9303145

Shell refinement iteration 40
----------------------------

No cells marked for refinement since reached limit 2000000.
Determined cells to refine in = 4.12 s
Selected for internal refinement : 85 cells (out of 16288125)
Skipping balancing since max unbalance 0.0358233 is less than allowable 0.1
After balancing shell refinement iteration 40 : cells:16288125  faces:53358371  points:20876253
Cells per refinement level:
    0	1161
    1	741
    2	1142
    3	2645
    4	6769
    5	23820
    6	117895
    7	515182
    8	1709040
    9	4606585
    10	9303145
Edge intersection testing:
    Number of edges             : 53360303
    Number of edges to retest   : 5545
    Number of intersected edges : 3497469
Refined mesh in = 18.41 s
After refinement shell refinement iteration 40 : cells:16288720  faces:53360303  points:20876998
Cells per refinement level:
    0	1161
    1	741
    2	1142
    3	2645
    4	6769
    5	23820
    6	117895
    7	515180
    8	1709050
    9	4606556
    10	9303761

Shell refinement iteration 41
----------------------------

No cells marked for refinement since reached limit 2000000.
Determined cells to refine in = 3.97 s
Selected for internal refinement : 73 cells (out of 16288720)
Skipping balancing since max unbalance 0.0357865 is less than allowable 0.1
After balancing shell refinement iteration 41 : cells:16288720  faces:53360303  points:20876998
Cells per refinement level:
    0	1161
    1	741
    2	1142
    3	2645
    4	6769
    5	23820
    6	117895
    7	515180
    8	1709050
    9	4606556
    10	9303761
Edge intersection testing:
    Number of edges             : 53361947
    Number of edges to retest   : 5122
    Number of intersected edges : 3497562
Refined mesh in = 18.02 s
After refinement shell refinement iteration 41 : cells:16289231  faces:53361947  points:20877618
Cells per refinement level:
    0	1161
    1	741
    2	1142
    3	2645
    4	6769
    5	23820
    6	117895
    7	515179
    8	1709049
    9	4606565
    10	9304265

Shell refinement iteration 42
----------------------------

No cells marked for refinement since reached limit 2000000.
Determined cells to refine in = 3.95 s
Selected for internal refinement : 84 cells (out of 16289231)
Skipping balancing since max unbalance 0.0357208 is less than allowable 0.1
After balancing shell refinement iteration 42 : cells:16289231  faces:53361947  points:20877618
Cells per refinement level:
    0	1161
    1	741
    2	1142
    3	2645
    4	6769
    5	23820
    6	117895
    7	515179
    8	1709049
    9	4606565
    10	9304265
Edge intersection testing:
    Number of edges             : 53363849
    Number of edges to retest   : 5480
    Number of intersected edges : 3497685
Refined mesh in = 18.19 s
After refinement shell refinement iteration 42 : cells:16289819  faces:53363849  points:20878344
Cells per refinement level:
    0	1161
    1	741
    2	1142
    3	2645
    4	6769
    5	23820
    6	117895
    7	515176
    8	1709070
    9	4606511
    10	9304889

Shell refinement iteration 43
----------------------------

No cells marked for refinement since reached limit 2000000.
Determined cells to refine in = 3.96 s
Selected for internal refinement : 78 cells (out of 16289819)
Skipping balancing since max unbalance 0.0356706 is less than allowable 0.1
After balancing shell refinement iteration 43 : cells:16289819  faces:53363849  points:20878344
Cells per refinement level:
    0	1161
    1	741
    2	1142
    3	2645
    4	6769
    5	23820
    6	117895
    7	515176
    8	1709070
    9	4606511
    10	9304889
Edge intersection testing:
    Number of edges             : 53365610
    Number of edges to retest   : 5285
    Number of intersected edges : 3497803
Refined mesh in = 18.17 s
After refinement shell refinement iteration 43 : cells:16290365  faces:53365610  points:20879011
Cells per refinement level:
    0	1161
    1	741
    2	1142
    3	2645
    4	6769
    5	23820
    6	117895
    7	515176
    8	1709061
    9	4606514
    10	9305441

Shell refinement iteration 44
----------------------------

No cells marked for refinement since reached limit 2000000.
Determined cells to refine in = 3.95 s
Selected for internal refinement : 79 cells (out of 16290365)
Skipping balancing since max unbalance 0.0356131 is less than allowable 0.1
After balancing shell refinement iteration 44 : cells:16290365  faces:53365610  points:20879011
Cells per refinement level:
    0	1161
    1	741
    2	1142
    3	2645
    4	6769
    5	23820
    6	117895
    7	515176
    8	1709061
    9	4606514
    10	9305441
Edge intersection testing:
    Number of edges             : 53367407
    Number of edges to retest   : 5245
    Number of intersected edges : 3497915
Refined mesh in = 17.25 s
After refinement shell refinement iteration 44 : cells:16290918  faces:53367407  points:20879699
Cells per refinement level:
    0	1161
    1	741
    2	1142
    3	2645
    4	6769
    5	23820
    6	117895
    7	515174
    8	1709072
    9	4606482
    10	9306017

Shell refinement iteration 45
----------------------------

No cells marked for refinement since reached limit 2000000.
Determined cells to refine in = 4.07 s
Selected for internal refinement : 82 cells (out of 16290918)
Skipping balancing since max unbalance 0.0355568 is less than allowable 0.1
After balancing shell refinement iteration 45 : cells:16290918  faces:53367407  points:20879699
Cells per refinement level:
    0	1161
    1	741
    2	1142
    3	2645
    4	6769
    5	23820
    6	117895
    7	515174
    8	1709072
    9	4606482
    10	9306017
Edge intersection testing:
    Number of edges             : 53369261
    Number of edges to retest   : 5524
    Number of intersected edges : 3498024
Refined mesh in = 17.53 s
After refinement shell refinement iteration 45 : cells:16291492  faces:53369261  points:20880403
Cells per refinement level:
    0	1161
    1	741
    2	1142
    3	2645
    4	6769
    5	23820
    6	117895
    7	515173
    8	1709072
    9	4606473
    10	9306601

Shell refinement iteration 46
----------------------------

No cells marked for refinement since reached limit 2000000.
Determined cells to refine in = 3.97 s
Selected for internal refinement : 84 cells (out of 16291492)
Skipping balancing since max unbalance 0.0354963 is less than allowable 0.1
After balancing shell refinement iteration 46 : cells:16291492  faces:53369261  points:20880403
Cells per refinement level:
    0	1161
    1	741
    2	1142
    3	2645
    4	6769
    5	23820
    6	117895
    7	515173
    8	1709072
    9	4606473
    10	9306601
Edge intersection testing:
    Number of edges             : 53371169
    Number of edges to retest   : 5371
    Number of intersected edges : 3498149
Refined mesh in = 17.27 s
After refinement shell refinement iteration 46 : cells:16292080  faces:53371169  points:20881136
Cells per refinement level:
    0	1161
    1	741
    2	1142
    3	2645
    4	6769
    5	23820
    6	117895
    7	515172
    8	1709076
    9	4606426
    10	9307233

Shell refinement iteration 47
----------------------------

No cells marked for refinement since reached limit 2000000.
Determined cells to refine in = 4.1 s
Selected for internal refinement : 82 cells (out of 16292080)
Skipping balancing since max unbalance 0.0354478 is less than allowable 0.1
After balancing shell refinement iteration 47 : cells:16292080  faces:53371169  points:20881136
Cells per refinement level:
    0	1161
    1	741
    2	1142
    3	2645
    4	6769
    5	23820
    6	117895
    7	515172
    8	1709076
    9	4606426
    10	9307233
Edge intersection testing:
    Number of edges             : 53373008
    Number of edges to retest   : 5577
    Number of intersected edges : 3498276
Refined mesh in = 17.24 s
After refinement shell refinement iteration 47 : cells:16292654  faces:53373008  points:20881826
Cells per refinement level:
    0	1161
    1	741
    2	1142
    3	2645
    4	6769
    5	23820
    6	117895
    7	515172
    8	1709065
    9	4606443
    10	9307801

Shell refinement iteration 48
----------------------------

No cells marked for refinement since reached limit 2000000.
Determined cells to refine in = 3.99 s
Selected for internal refinement : 70 cells (out of 16292654)
Skipping balancing since max unbalance 0.0353711 is less than allowable 0.1
After balancing shell refinement iteration 48 : cells:16292654  faces:53373008  points:20881826
Cells per refinement level:
    0	1161
    1	741
    2	1142
    3	2645
    4	6769
    5	23820
    6	117895
    7	515172
    8	1709065
    9	4606443
    10	9307801
Edge intersection testing:
    Number of edges             : 53374601
    Number of edges to retest   : 4642
    Number of intersected edges : 3498373
Refined mesh in = 17.09 s
After refinement shell refinement iteration 48 : cells:16293144  faces:53374601  points:20882441
Cells per refinement level:
    0	1161
    1	741
    2	1142
    3	2645
    4	6769
    5	23820
    6	117895
    7	515170
    8	1709074
    9	4606438
    10	9308289

Shell refinement iteration 49
----------------------------

No cells marked for refinement since reached limit 2000000.
Determined cells to refine in = 4.04 s
Selected for internal refinement : 64 cells (out of 16293144)
Skipping balancing since max unbalance 0.0353048 is less than allowable 0.1
After balancing shell refinement iteration 49 : cells:16293144  faces:53374601  points:20882441
Cells per refinement level:
    0	1161
    1	741
    2	1142
    3	2645
    4	6769
    5	23820
    6	117895
    7	515170
    8	1709074
    9	4606438
    10	9308289
Edge intersection testing:
    Number of edges             : 53376053
    Number of edges to retest   : 4313
    Number of intersected edges : 3498450
Refined mesh in = 17.13 s
After refinement shell refinement iteration 49 : cells:16293592  faces:53376053  points:20882994
Cells per refinement level:
    0	1161
    1	741
    2	1142
    3	2645
    4	6769
    5	23820
    6	117895
    7	515169
    8	1709075
    9	4606438
    10	9308737

Shell refinement iteration 50
----------------------------

No cells marked for refinement since reached limit 2000000.
Determined cells to refine in = 3.98 s
Selected for internal refinement : 62 cells (out of 16293592)
Skipping balancing since max unbalance 0.0352403 is less than allowable 0.1
After balancing shell refinement iteration 50 : cells:16293592  faces:53376053  points:20882994
Cells per refinement level:
    0	1161
    1	741
    2	1142
    3	2645
    4	6769
    5	23820
    6	117895
    7	515169
    8	1709075
    9	4606438
    10	9308737
Edge intersection testing:
    Number of edges             : 53377442
    Number of edges to retest   : 4133
    Number of intersected edges : 3498529
Refined mesh in = 17.31 s
After refinement shell refinement iteration 50 : cells:16294026  faces:53377442  points:20883512
Cells per refinement level:
    0	1161
    1	741
    2	1142
    3	2645
    4	6769
    5	23820
    6	117895
    7	515169
    8	1709069
    9	4606430
    10	9309185

Shell refinement iteration 51
----------------------------

No cells marked for refinement since reached limit 2000000.
Determined cells to refine in = 3.98 s
Selected for internal refinement : 51 cells (out of 16294026)
Skipping balancing since max unbalance 0.0351712 is less than allowable 0.1
After balancing shell refinement iteration 51 : cells:16294026  faces:53377442  points:20883512
Cells per refinement level:
    0	1161
    1	741
    2	1142
    3	2645
    4	6769
    5	23820
    6	117895
    7	515169
    8	1709069
    9	4606430
    10	9309185
Edge intersection testing:
    Number of edges             : 53378579
    Number of edges to retest   : 3605
    Number of intersected edges : 3498586
Refined mesh in = 17.14 s
After refinement shell refinement iteration 51 : cells:16294383  faces:53378579  points:20883934
Cells per refinement level:
    0	1161
    1	741
    2	1142
    3	2645
    4	6769
    5	23820
    6	117895
    7	515168
    8	1709070
    9	4606443
    10	9309529

Shell refinement iteration 52
----------------------------

No cells marked for refinement since reached limit 2000000.
Determined cells to refine in = 4.08 s
Selected for internal refinement : 37 cells (out of 16294383)
Skipping balancing since max unbalance 0.0350937 is less than allowable 0.1
After balancing shell refinement iteration 52 : cells:16294383  faces:53378579  points:20883934
Cells per refinement level:
    0	1161
    1	741
    2	1142
    3	2645
    4	6769
    5	23820
    6	117895
    7	515168
    8	1709070
    9	4606443
    10	9309529
Edge intersection testing:
    Number of edges             : 53379422
    Number of edges to retest   : 2420
    Number of intersected edges : 3498641
Refined mesh in = 17.04 s
After refinement shell refinement iteration 52 : cells:16294642  faces:53379422  points:20884260
Cells per refinement level:
    0	1161
    1	741
    2	1142
    3	2645
    4	6769
    5	23820
    6	117895
    7	515167
    8	1709075
    9	4606434
    10	9309793

Shell refinement iteration 53
----------------------------

No cells marked for refinement since reached limit 2000000.
Determined cells to refine in = 4.03 s
Selected for internal refinement : 35 cells (out of 16294642)
Skipping balancing since max unbalance 0.035018 is less than allowable 0.1
After balancing shell refinement iteration 53 : cells:16294642  faces:53379422  points:20884260
Cells per refinement level:
    0	1161
    1	741
    2	1142
    3	2645
    4	6769
    5	23820
    6	117895
    7	515167
    8	1709075
    9	4606434
    10	9309793
Edge intersection testing:
    Number of edges             : 53380220
    Number of edges to retest   : 2245
    Number of intersected edges : 3498690
Refined mesh in = 16.34 s
After refinement shell refinement iteration 53 : cells:16294887  faces:53380220  points:20884568
Cells per refinement level:
    0	1161
    1	741
    2	1142
    3	2645
    4	6769
    5	23820
    6	117895
    7	515167
    8	1709073
    9	4606417
    10	9310057

Shell refinement iteration 54
----------------------------

No cells marked for refinement since reached limit 2000000.
Determined cells to refine in = 3.98 s
Selected for internal refinement : 32 cells (out of 16294887)
Skipping balancing since max unbalance 0.0349488 is less than allowable 0.1
After balancing shell refinement iteration 54 : cells:16294887  faces:53380220  points:20884568
Cells per refinement level:
    0	1161
    1	741
    2	1142
    3	2645
    4	6769
    5	23820
    6	117895
    7	515167
    8	1709073
    9	4606417
    10	9310057
Edge intersection testing:
    Number of edges             : 53380946
    Number of edges to retest   : 2082
    Number of intersected edges : 3498745
Refined mesh in = 16.58 s
After refinement shell refinement iteration 54 : cells:16295111  faces:53380946  points:20884845
Cells per refinement level:
    0	1161
    1	741
    2	1142
    3	2645
    4	6769
    5	23820
    6	117895
    7	515166
    8	1709080
    9	4606395
    10	9310297

Shell refinement iteration 55
----------------------------

No cells marked for refinement since reached limit 2000000.
Determined cells to refine in = 4.01 s
Selected for internal refinement : 31 cells (out of 16295111)
Skipping balancing since max unbalance 0.0348818 is less than allowable 0.1
After balancing shell refinement iteration 55 : cells:16295111  faces:53380946  points:20884845
Cells per refinement level:
    0	1161
    1	741
    2	1142
    3	2645
    4	6769
    5	23820
    6	117895
    7	515166
    8	1709080
    9	4606395
    10	9310297
Edge intersection testing:
    Number of edges             : 53381654
    Number of edges to retest   : 2002
    Number of intersected edges : 3498799
Refined mesh in = 16.85 s
After refinement shell refinement iteration 55 : cells:16295328  faces:53381654  points:20885117
Cells per refinement level:
    0	1161
    1	741
    2	1142
    3	2645
    4	6769
    5	23820
    6	117895
    7	515166
    8	1709078
    9	4606382
    10	9310529

Shell refinement iteration 56
----------------------------

No cells marked for refinement since reached limit 2000000.
Determined cells to refine in = 3.95 s
Selected for internal refinement : 41 cells (out of 16295328)
Skipping balancing since max unbalance 0.0347931 is less than allowable 0.1
After balancing shell refinement iteration 56 : cells:16295328  faces:53381654  points:20885117
Cells per refinement level:
    0	1161
    1	741
    2	1142
    3	2645
    4	6769
    5	23820
    6	117895
    7	515166
    8	1709078
    9	4606382
    10	9310529
Edge intersection testing:
    Number of edges             : 53382596
    Number of edges to retest   : 2536
    Number of intersected edges : 3498875
Refined mesh in = 16.43 s
After refinement shell refinement iteration 56 : cells:16295615  faces:53382596  points:20885487
Cells per refinement level:
    0	1161
    1	741
    2	1142
    3	2645
    4	6769
    5	23820
    6	117895
    7	515165
    8	1709084
    9	4606360
    10	9310833

Shell refinement iteration 57
----------------------------

No cells marked for refinement since reached limit 2000000.
Determined cells to refine in = 3.95 s
Selected for internal refinement : 25 cells (out of 16295615)
Skipping balancing since max unbalance 0.034739 is less than allowable 0.1
After balancing shell refinement iteration 57 : cells:16295615  faces:53382596  points:20885487
Cells per refinement level:
    0	1161
    1	741
    2	1142
    3	2645
    4	6769
    5	23820
    6	117895
    7	515165
    8	1709084
    9	4606360
    10	9310833
Edge intersection testing:
    Number of edges             : 53383163
    Number of edges to retest   : 1736
    Number of intersected edges : 3498912
Refined mesh in = 16.57 s
After refinement shell refinement iteration 57 : cells:16295790  faces:53383163  points:20885702
Cells per refinement level:
    0	1161
    1	741
    2	1142
    3	2645
    4	6769
    5	23820
    6	117894
    7	515173
    8	1709083
    9	4606345
    10	9311017

Shell refinement iteration 58
----------------------------

No cells marked for refinement since reached limit 2000000.
Determined cells to refine in = 3.88 s
Selected for internal refinement : 39 cells (out of 16295790)
Skipping balancing since max unbalance 0.0346547 is less than allowable 0.1
After balancing shell refinement iteration 58 : cells:16295790  faces:53383163  points:20885702
Cells per refinement level:
    0	1161
    1	741
    2	1142
    3	2645
    4	6769
    5	23820
    6	117894
    7	515173
    8	1709083
    9	4606345
    10	9311017
Edge intersection testing:
    Number of edges             : 53384054
    Number of edges to retest   : 2382
    Number of intersected edges : 3498984
Refined mesh in = 16.78 s
After refinement shell refinement iteration 58 : cells:16296063  faces:53384054  points:20886048
Cells per refinement level:
    0	1161
    1	741
    2	1142
    3	2645
    4	6769
    5	23820
    6	117894
    7	515173
    8	1709082
    9	4606315
    10	9311321

Shell refinement iteration 59
----------------------------

No cells marked for refinement since reached limit 2000000.
Determined cells to refine in = 3.93 s
Selected for internal refinement : 36 cells (out of 16296063)
Skipping balancing since max unbalance 0.0345768 is less than allowable 0.1
After balancing shell refinement iteration 59 : cells:16296063  faces:53384054  points:20886048
Cells per refinement level:
    0	1161
    1	741
    2	1142
    3	2645
    4	6769
    5	23820
    6	117894
    7	515173
    8	1709082
    9	4606315
    10	9311321
Edge intersection testing:
    Number of edges             : 53384876
    Number of edges to retest   : 2233
    Number of intersected edges : 3499037
Refined mesh in = 16.46 s
After refinement shell refinement iteration 59 : cells:16296315  faces:53384876  points:20886362
Cells per refinement level:
    0	1161
    1	741
    2	1142
    3	2645
    4	6769
    5	23820
    6	117894
    7	515173
    8	1709079
    9	4606306
    10	9311585

Shell refinement iteration 60
----------------------------

No cells marked for refinement since reached limit 2000000.
Determined cells to refine in = 4.03 s
Selected for internal refinement : 27 cells (out of 16296315)
Skipping balancing since max unbalance 0.0345184 is less than allowable 0.1
After balancing shell refinement iteration 60 : cells:16296315  faces:53384876  points:20886362
Cells per refinement level:
    0	1161
    1	741
    2	1142
    3	2645
    4	6769
    5	23820
    6	117894
    7	515173
    8	1709079
    9	4606306
    10	9311585
Edge intersection testing:
    Number of edges             : 53385491
    Number of edges to retest   : 1837
    Number of intersected edges : 3499074
Refined mesh in = 16.62 s
After refinement shell refinement iteration 60 : cells:16296504  faces:53385491  points:20886599
Cells per refinement level:
    0	1161
    1	741
    2	1142
    3	2645
    4	6769
    5	23820
    6	117894
    7	515173
    8	1709076
    9	4606306
    10	9311777

Shell refinement iteration 61
----------------------------

No cells marked for refinement since reached limit 2000000.
Determined cells to refine in = 3.96 s
Selected for internal refinement : 51 cells (out of 16296504)
Skipping balancing since max unbalance 0.0344082 is less than allowable 0.1
After balancing shell refinement iteration 61 : cells:16296504  faces:53385491  points:20886599
Cells per refinement level:
    0	1161
    1	741
    2	1142
    3	2645
    4	6769
    5	23820
    6	117894
    7	515173
    8	1709076
    9	4606306
    10	9311777
Edge intersection testing:
    Number of edges             : 53386664
    Number of edges to retest   : 2932
    Number of intersected edges : 3499157
Refined mesh in = 16.5 s
After refinement shell refinement iteration 61 : cells:16296861  faces:53386664  points:20887060
Cells per refinement level:
    0	1161
    1	741
    2	1142
    3	2645
    4	6769
    5	23820
    6	117894
    7	515173
    8	1709074
    9	4606273
    10	9312169

Shell refinement iteration 62
----------------------------

No cells marked for refinement since reached limit 2000000.
Determined cells to refine in = 3.96 s
Selected for internal refinement : 29 cells (out of 16296861)
Skipping balancing since max unbalance 0.0343455 is less than allowable 0.1
[...]
- if partially extruded faces make angle < 30
- if exclusively surrounded by non-extruded faces
displacementMedialAxis : Number of isolated points extrusion stopped : 2
fieldSmoother : Smoothing field ...
    Iteration 0   residual 8.73213e-06
displacementMedialAxis : Moving mesh ...
displacementMedialAxis : Iteration 0
Moving mesh using displacement scaling : min:1  max:1
Checking faces in error :
    non-orthogonality > 65  degrees                        : 30
    faces with face pyramid volume < 1e-13                 : 0
    faces with face-decomposition tet quality < 1e-15      : 812
    faces with concavity > 80  degrees                     : 0
    faces with skewness > 4   (internal) or 20  (boundary) : 0
    faces with interpolation weights (0..1)  < 0.02        : 0
    faces with volume ratio of neighbour cells < 0.01      : 0
    faces with face twist < 0.02                           : 5
    faces on cells with determinant < 0.001                : 0
displacementMedialAxis : Iteration 1
Moving mesh using displacement scaling : min:0.75  max:1
Checking faces in error :
    non-orthogonality > 65  degrees                        : 7
    faces with face pyramid volume < 1e-13                 : 0
    faces with face-decomposition tet quality < 1e-15      : 72
    faces with concavity > 80  degrees                     : 0
    faces with skewness > 4   (internal) or 20  (boundary) : 0
    faces with interpolation weights (0..1)  < 0.02        : 0
    faces with volume ratio of neighbour cells < 0.01      : 0
    faces with face twist < 0.02                           : 0
    faces on cells with determinant < 0.001                : 0
displacementMedialAxis : Iteration 2
Moving mesh using displacement scaling : min:0.5625  max:1
Checking faces in error :
    non-orthogonality > 65  degrees                        : 1
    faces with face pyramid volume < 1e-13                 : 0
    faces with face-decomposition tet quality < 1e-15      : 18
    faces with concavity > 80  degrees                     : 0
    faces with skewness > 4   (internal) or 20  (boundary) : 0
    faces with interpolation weights (0..1)  < 0.02        : 0
    faces with volume ratio of neighbour cells < 0.01      : 0
    faces with face twist < 0.02                           : 0
    faces on cells with determinant < 0.001                : 3
displacementMedialAxis : Iteration 3
displacementMedialAxis : Displacement scaling for error reduction set to 0.
Moving mesh using displacement scaling : min:0.421875  max:1
Checking faces in error :
    non-orthogonality > 65  degrees                        : 0
    faces with face pyramid volume < 1e-13                 : 0
    faces with face-decomposition tet quality < 1e-15      : 2
    faces with concavity > 80  degrees                     : 0
    faces with skewness > 4   (internal) or 20  (boundary) : 0
    faces with interpolation weights (0..1)  < 0.02        : 0
    faces with volume ratio of neighbour cells < 0.01      : 0
    faces with face twist < 0.02                           : 0
    faces on cells with determinant < 0.001                : 0
displacementMedialAxis : Iteration 4
Moving mesh using displacement scaling : min:0  max:1
Checking faces in error :
    non-orthogonality > 65  degrees                        : 0
    faces with face pyramid volume < 1e-13                 : 0
    faces with face-decomposition tet quality < 1e-15      : 0
    faces with concavity > 80  degrees                     : 0
    faces with skewness > 4   (internal) or 20  (boundary) : 0
    faces with interpolation weights (0..1)  < 0.02        : 0
    faces with volume ratio of neighbour cells < 0.01      : 0
    faces with face twist < 0.02                           : 0
    faces on cells with determinant < 0.001                : 0
displacementMedialAxis : Successfully moved mesh
displacementMedialAxis : Finished moving mesh ...
truncateDisplacement : Unextruded 0 faces due to non-consecutive vertices being extruded.
truncateDisplacement : Unextruded 0 faces due to stringed edges with inconsistent extrusion.

Setting up information for layer truncation ...
Detected 0 baffles across faceZones of type internal


Checking mesh with layer ...
Checking faces in error :
    non-orthogonality > 65  degrees                        : 0
    faces with face pyramid volume < 1e-13                 : 0
    faces with face-decomposition tet quality < 1e-15      : 1
    faces with concavity > 80  degrees                     : 0
    faces with skewness > 4   (internal) or 20  (boundary) : 0
    faces with interpolation weights (0..1)  < 0.02        : 0
    faces with volume ratio of neighbour cells < 0.01      : 0
    faces with face twist < 0.02                           : 0
    faces on cells with determinant < 0.001                : 0
Detected 1 illegal faces (concave, zero area or negative cell pyramid volume)
Extruding 2167297 out of 2675069 faces (81.0184%). Removed extrusion at 1 faces.
Added 2167298 out of 2675069 cells (81.0184%).


Layer addition iteration 45
--------------------------

Determining displacement for added points according to pointNormal ...
Detected 0 points with point normal pointing through faces.
Reset displacement at 0 points to average of surrounding points.

displacementMedialAxis : Smoothing using Medial Axis ...
displacementMedialAxis : Reducing layer thickness at 7991 nodes where thickness to medial axis distance is large 
displacementMedialAxis : Removing isolated regions ...
- if partially extruded faces make angle < 30
- if exclusively surrounded by non-extruded faces
displacementMedialAxis : Number of isolated points extrusion stopped : 7
fieldSmoother : Smoothing field ...
    Iteration 0   residual 8.73222e-06
displacementMedialAxis : Moving mesh ...
displacementMedialAxis : Iteration 0
Moving mesh using displacement scaling : min:1  max:1
Checking faces in error :
    non-orthogonality > 65  degrees                        : 30
    faces with face pyramid volume < 1e-13                 : 0
    faces with face-decomposition tet quality < 1e-15      : 812
    faces with concavity > 80  degrees                     : 0
    faces with skewness > 4   (internal) or 20  (boundary) : 0
    faces with interpolation weights (0..1)  < 0.02        : 0
    faces with volume ratio of neighbour cells < 0.01      : 0
    faces with face twist < 0.02                           : 5
    faces on cells with determinant < 0.001                : 0
displacementMedialAxis : Iteration 1
Moving mesh using displacement scaling : min:0.75  max:1
Checking faces in error :
    non-orthogonality > 65  degrees                        : 7
    faces with face pyramid volume < 1e-13                 : 0
    faces with face-decomposition tet quality < 1e-15      : 72
    faces with concavity > 80  degrees                     : 0
    faces with skewness > 4   (internal) or 20  (boundary) : 0
    faces with interpolation weights (0..1)  < 0.02        : 0
    faces with volume ratio of neighbour cells < 0.01      : 0
    faces with face twist < 0.02                           : 0
    faces on cells with determinant < 0.001                : 0
displacementMedialAxis : Iteration 2
Moving mesh using displacement scaling : min:0.5625  max:1
Checking faces in error :
    non-orthogonality > 65  degrees                        : 1
    faces with face pyramid volume < 1e-13                 : 0
    faces with face-decomposition tet quality < 1e-15      : 18
    faces with concavity > 80  degrees                     : 0
    faces with skewness > 4   (internal) or 20  (boundary) : 0
    faces with interpolation weights (0..1)  < 0.02        : 0
    faces with volume ratio of neighbour cells < 0.01      : 0
    faces with face twist < 0.02                           : 0
    faces on cells with determinant < 0.001                : 3
displacementMedialAxis : Iteration 3
displacementMedialAxis : Displacement scaling for error reduction set to 0.
Moving mesh using displacement scaling : min:0.421875  max:1
Checking faces in error :
    non-orthogonality > 65  degrees                        : 0
    faces with face pyramid volume < 1e-13                 : 0
    faces with face-decomposition tet quality < 1e-15      : 2
    faces with concavity > 80  degrees                     : 0
    faces with skewness > 4   (internal) or 20  (boundary) : 0
    faces with interpolation weights (0..1)  < 0.02        : 0
    faces with volume ratio of neighbour cells < 0.01      : 0
    faces with face twist < 0.02                           : 0
    faces on cells with determinant < 0.001                : 0
displacementMedialAxis : Iteration 4
Moving mesh using displacement scaling : min:0  max:1
Checking faces in error :
    non-orthogonality > 65  degrees                        : 0
    faces with face pyramid volume < 1e-13                 : 0
    faces with face-decomposition tet quality < 1e-15      : 0
    faces with concavity > 80  degrees                     : 0
    faces with skewness > 4   (internal) or 20  (boundary) : 0
    faces with interpolation weights (0..1)  < 0.02        : 0
    faces with volume ratio of neighbour cells < 0.01      : 0
    faces with face twist < 0.02                           : 0
    faces on cells with determinant < 0.001                : 0
displacementMedialAxis : Successfully moved mesh
displacementMedialAxis : Finished moving mesh ...
truncateDisplacement : Unextruded 0 faces due to non-consecutive vertices being extruded.
truncateDisplacement : Unextruded 0 faces due to stringed edges with inconsistent extrusion.

Setting up information for layer truncation ...
Detected 0 baffles across faceZones of type internal


Checking mesh with layer ...
Checking faces in error :
    non-orthogonality > 65  degrees                        : 0
    faces with face pyramid volume < 1e-13                 : 0
    faces with face-decomposition tet quality < 1e-15      : 0
    faces with concavity > 80  degrees                     : 0
    faces with skewness > 4   (internal) or 20  (boundary) : 0
    faces with interpolation weights (0..1)  < 0.02        : 0
    faces with volume ratio of neighbour cells < 0.01      : 0
    faces with face twist < 0.02                           : 0
    faces on cells with determinant < 0.001                : 0
Detected 0 illegal faces (concave, zero area or negative cell pyramid volume)
Extruding 2167293 out of 2675069 faces (81.0182%). Removed extrusion at 0 faces.
Added 2167293 out of 2675069 cells (81.0182%).
Edge intersection testing:
    Number of edges             : 45125736
    Number of edges to retest   : 0
    Number of intersected edges : 4826220

patch                                            faces    layers   overall thickness
                                                                   [m]       [%]
-----                                            -----    ------   ---       ---
lowerWall                                        2680     0.972    0.0262    83.5    
motorBike_frt-fairing:001%1                      241924   0.386    0.000107  20.4    
motorBike_windshield:002%2                       2944     0.968    0.000363  84.3    
motorBike_rr-wh-rim:005%5                        13850    0.908    0.00025   59      
motorBike_rr-wh-rim:010%10                       52893    0.937    0.000214  65.6    
motorBike_fr-wh-rim:011%11                       79295    0.95     0.000221  71.9    
motorBike_fr-wh-brake-disk:012%12                5748     0.996    0.000318  82.5    
motorBike_frame:016-shadow%13                    10361    0.725    0.000162  39.8    
motorBike_rear-susp:014%14                       75610    0.661    0.000185  43.5    
motorBike_rear-susp:014-shadow%15                40568    0.591    0.000173  38.6    
motorBike_frame:016%16                           5254     0.656    0.000149  35.3    
motorBike_rr-wh-rim:005-shadow%17                5568     0.854    0.000254  54.5    
motorBike_rr-wh-chain-hub:022%22                 17275    0.99     0.000247  76.8    
motorBike_rearseat%24                            28572    0.976    0.000315  80      
motorBike_frt-fairing%25                         40323    0.974    0.000334  79.7    
motorBike_windshield%26                          13299    0.05     1.31e-05  2.19    
motorBike_headlights%27                          8217     0.999    0.000413  95.2    
motorBike_driversseat%28                         30056    0.928    0.000319  71.7    
motorBike_rear-body%29                           108280   0.974    0.000362  80.1    
motorBike_fuel-tank%30                           15015    0.899    0.000542  75.1    
motorBike_exhaust%31                             126685   0.978    0.000348  82.7    
motorBike_rr-wh-rim%32                           72123    0.968    0.000344  75.5    
motorBike_fr-mud-guard%33                        46335    0.298    6.29e-05  13.4    
motorBike_fr-wh-rim%34                           44548    0.981    0.000333  83.7    
motorBike_fr-wh-brake-disk%35                    61367    0.946    0.000228  64.3    
motorBike_fr-brake-caliper%36                    24183    0.972    0.000216  67.6    
motorBike_fr-wh-tyre%37                          67013    0.974    0.000346  74.6    
motorBike_hbars%38                               80266    0.9      0.00021   64.6    
motorBike_fr-forks%39                            73650    0.956    0.000292  72.7    
motorBike_chain%40                               73652    0.984    0.000231  73.6    
motorBike_rr-wh-tyre%41                          63227    0.971    0.000365  73.9    
motorBike_square-dial%42                         700      1        0.000324  96.5    
motorBike_round-dial%43                          1182     1        0.000351  95.4    
motorBike_dial-holder%44                         10177    0.972    0.000264  74.7    
motorBike_rear-susp%45                           183365   0.98     0.000284  76.5    
motorBike_rear-brake-lights%46                   7259     0.973    0.000249  74.1    
motorBike_rear-light-bracket%47                  12587    0.981    0.000296  72.9    
motorBike_frame%48                               143873   0.976    0.000318  77.6    
motorBike_rear-mud-guard%49                      27027    0.29     5.97e-05  13.8    
motorBike_rear-susp-spring-damp%50               9656     0.636    0.000118  30.5    
motorBike_fairing-inner-plate%51                 31638    0.956    0.000312  73.7    
motorBike_clutch-housing%52                      32842    0.986    0.000456  79.5    
motorBike_radiator%53                            29165    0.585    9.45e-05  33.3    
motorBike_water-pipe%54                          17692    0.932    0.00017   58.3    
motorBike_water-pump%55                          10685    0.923    0.000212  64.1    
motorBike_engine%56                              123940   0.981    0.000358  76.9    
motorBike_rear-shock-link%57                     7210     0.662    9.62e-05  32.5    
motorBike_rear-brake-fluid-pot-bracket%58        6070     0.787    0.000171  46.1    
motorBike_rear-brake-fluid-pot%59                7771     0.98     0.000232  72.5    
motorBike_footpeg%60                             14770    0.966    0.000251  76.2    
motorBike_rr-wh-chain-hub%61                     16728    0.834    0.000188  53      
motorBike_rear-brake-caliper%62                  23282    0.977    0.000215  68.2    
motorBike_rider-helmet%65                        20274    0.987    0.000431  82.1    
motorBike_rider-visor%66                         7368     0.999    0.000438  94.3    
motorBike_rider-boots%67                         27018    0.967    0.000443  79.4    
motorBike_rider-gloves%68                        33683    0.95     0.000268  72.8    
motorBike_rider-body%69                          68149    0.934    0.000571  75.2    
motorBike_frame:0%70                             3963     0.973    0.000294  82.7    
motorBike_frt-fairing:001-shadow%74              147073   0.329    9.89e-05  17.7    
motorBike_windshield-shadow%75                   9233     0.0438   1.34e-05  1.95    
motorBike_fr-mud-guard-shadow%81                 29658    0.26     5.68e-05  11.8    
motorBike_fr-wh-brake-disk-shadow%83             26655    0.92     0.000232  62.5    
motorBike_rear-mud-guard-shadow%84               16382    0.242    5.42e-05  12      
motorBike_rear-susp-spring-damp-shadow%85        6308     0.595    0.000112  28      
motorBike_radiator-shadow%86                     15731    0.505    8.2e-05   28.5    
motorBike_rear-shock-link-shadow%87              4413     0.579    8.39e-05  28.3    
motorBike_rear-brake-fluid-pot-bracket-shadow%88 3038     0.693    0.000147  39.1    
motorBike_rr-wh-chain-hub-shadow%89              7723     0.757    0.000175  47.5    


Doing final balancing
---------------------

Writing 2167293 added cells to cellSet addedCells
Writing 0 faces inside added layer to faceSet layerFaces

Writing fields with layer information:
    nSurfaceLayers    : actual number of layers
    thickness         : overall layer thickness
    thicknessFraction : overall layer thickness (fraction of desired thickness)

Layer mesh : cells:13818496  faces:45125736  points:18005753
Cells per refinement level:
    0	1282
    1	847
    2	1259
    3	2843
    4	7091
    5	23740
    6	109552
    7	469198
    8	1535843
    9	3938894
    10	7727947
Writing mesh to time constant
Wrote mesh in = 3479.61 s.
Layers added in = 3479.61 s.
Checking final mesh ...
Checking faces in error :
    non-orthogonality > 65  degrees                        : 0
    faces with face pyramid volume < 1e-13                 : 0
    faces with face-decomposition tet quality < 1e-15      : 0
    faces with concavity > 80  degrees                     : 0
    faces with skewness > 4   (internal) or 20  (boundary) : 0
    faces with interpolation weights (0..1)  < 0.02        : 0
    faces with volume ratio of neighbour cells < 0.01      : 0
    faces with face twist < 0.02                           : 0
    faces on cells with determinant < 0.001                : 0
Finished meshing without any errors
Finished meshing in = 6708.37 s.
End

Finalising parallel run
[1] #0  Foam::error::printStack(Foam::Ostream&) in /usr/lib/openfoam/openfoam2212/platforms/linux64GccDPInt32Opt/lib/libOpenFOAM.so
[1] #1  Foam::sigSegv::sigHandler(int) in /usr/lib/openfoam/openfoam2212/platforms/linux64GccDPInt32Opt/lib/libOpenFOAM.so
[1] #2  ? in /lib/x86_64-linux-gnu/libpthread.so.0
[1] #3  ? in /lib/x86_64-linux-gnu/libfabric.so.1
[1] #4  ? in /lib/x86_64-linux-gnu/libfabric.so.1
[1] #5  ? in /lib/x86_64-linux-gnu/libpthread.so.0
[1] #6  clone in /lib/x86_64-linux-gnu/libc.so.6
[mintu:555083] *** Process received signal ***
[mintu:555083] Signal: Segmentation fault (11)
[mintu:555083] Signal code:  (-6)
[mintu:555083] Failing at address: 0x81b0008784b
[mintu:555083] [ 0] /lib/x86_64-linux-gnu/libpthread.so.0(+0x14420)[0x7fbb16776420]
[mintu:555083] [ 1] /lib/x86_64-linux-gnu/libpthread.so.0(raise+0xcb)[0x7fbb167762ab]
[mintu:555083] [ 2] /lib/x86_64-linux-gnu/libpthread.so.0(+0x14420)[0x7fbb16776420]
[mintu:555083] [ 3] /lib/x86_64-linux-gnu/libfabric.so.1(+0x724fa)[0x7fbb100f84fa]
[mintu:555083] [ 4] /lib/x86_64-linux-gnu/libfabric.so.1(+0x72d04)[0x7fbb100f8d04]
[mintu:555083] [ 5] /lib/x86_64-linux-gnu/libpthread.so.0(+0x8609)[0x7fbb1676a609]
[mintu:555083] [ 6] /lib/x86_64-linux-gnu/libc.so.6(clone+0x43)[0x7fbb1668f353]
[mintu:555083] *** End of error message ***
--------------------------------------------------------------------------
Primary job  terminated normally, but 1 process returned
a non-zero exit code. Per user-direction, the job has been aborted.
--------------------------------------------------------------------------
--------------------------------------------------------------------------
mpirun noticed that process rank 1 with PID 0 on node mintu exited on signal 11 (Segmentation fault).
--------------------------------------------------------------------------
