/*---------------------------------------------------------------------------*\
| =========                 |                                                 |
| \\      /  F ield         | OpenFOAM: The Open Source CFD Toolbox           |
|  \\    /   O peration     | Version:  2412                                  |
|   \\  /    A nd           | Website:  www.openfoam.com                      |
|    \\/     M anipulation  |                                                 |
\*---------------------------------------------------------------------------*/
Build  : _45e7c4a0-20241224 OPENFOAM=2412 version=2412
Arch   : "LSB;label=32;scalar=64"
Exec   : snappyHexMesh -parallel -decomposeParDict system/decomposeParDict.6 -overwrite
Date   : Mar 05 2025
Time   : 14:38:59
Host   : 9cbf3f4d579a
PID    : 262
I/O    : uncollated
Case   : /foam/OpenFOAM/2412/work/OpenFOAM_v2412_cases/incompressible_simpleFoam_motorBike
nProcs : 6
Hosts  :
(
    (9cbf3f4d579a 6)
)
Pstream initialized with:
    floatTransfer      : false
    maxCommsSize       : 0
    nProcsSimpleSum    : 0
    nonBlockingExchange: 0 (tuning: 0)
    exchange algorithm : 0
    commsType          : nonBlocking
    polling iterations : 0
trapFpe: Floating point exception trapping enabled (FOAM_SIGFPE).
fileModificationChecking : Monitoring run-time modified files using timeStampMaster (fileModificationSkew 5, maxFileModificationPolls 20)
allowSystemOperations : Allowing user-supplied system call operations

// * * * * * * * * * * * * * * * * * * * * * * * * * * * * * * * * * * * * * //
Create time

Create mesh for time = 0

Read mesh in = 0.01 s

Overall mesh bounding box  : (-5 -4 0) (15 4 8)
Relative tolerance         : 1e-06
Absolute matching distance : 2.29783e-05

Reading refinement surfaces.
Read refinement surfaces in = 0.26 s

Reading refinement shells.
Refinement level 4 for all cells inside refinementBox
Read refinement shells in = 0 s

Setting refinement level of surface to be consistent with shells.
For geometry motorBike.obj detected 0 uncached triangles out of 331653
Checked shell refinement in = 1.08 s

Reading features.
Read edgeMesh motorBike.eMesh
    points      : 20665
    edges       : 20867
    boundingBox : (-0.241214 -0.337971 -4.232e-05) (1.75115 0.329368 1.21979)

Refinement level according to distance to "motorBike.eMesh" (20665 points, 20867 edges).
    level 6 for all cells within 0 metre.
Read features in = 0.03 s


Determining initial surface intersections
-----------------------------------------

Edge intersection testing:
    Number of edges             : 4224
    Number of edges to retest   : 0
    Number of intersected edges : 0
Edge intersection testing:
    Number of edges             : 4224
    Number of edges to retest   : 4224
    Number of intersected edges : 2
Calculated surface intersections in = 0 s

Initial mesh : cells:1280  faces:4224  points:1701  unbalance:0.003125
Cells per refinement level:
    0	1280
Setting refinement level of surface to be consistent with curvature.
Checked curvature refinement in = 0 s


Adding patches for surface regions
----------------------------------

Patch Type                Region                        
----- ----                ------                        
motorBike:

5     wall                motorBike_frt-fairing:001%1   
6     wall                motorBike_windshield:002%2    
7     wall                motorBike_rr-wh-rim:005%5     
8     wall                motorBike_rr-wh-rim:010%10    
9     wall                motorBike_fr-wh-rim:011%11    
10    wall                motorBike_fr-wh-brake-disk:012%12
11    wall                motorBike_frame:016-shadow%13 
12    wall                motorBike_rear-susp:014%14    
13    wall                motorBike_rear-susp:014-shadow%15
14    wall                motorBike_frame:016%16        
15    wall                motorBike_rr-wh-rim:005-shadow%17
16    wall                motorBike_rr-wh-chain-hub:022%22
17    wall                motorBike_rearseat%24         
18    wall                motorBike_frt-fairing%25      
19    wall                motorBike_windshield%26       
20    wall                motorBike_headlights%27       
21    wall                motorBike_driversseat%28      
22    wall                motorBike_rear-body%29        
23    wall                motorBike_fuel-tank%30        
24    wall                motorBike_exhaust%31          
25    wall                motorBike_rr-wh-rim%32        
26    wall                motorBike_fr-mud-guard%33     
27    wall                motorBike_fr-wh-rim%34        
28    wall                motorBike_fr-wh-brake-disk%35 
29    wall                motorBike_fr-brake-caliper%36 
30    wall                motorBike_fr-wh-tyre%37       
31    wall                motorBike_hbars%38            
32    wall                motorBike_fr-forks%39         
33    wall                motorBike_chain%40            
34    wall                motorBike_rr-wh-tyre%41       
35    wall                motorBike_square-dial%42      
36    wall                motorBike_round-dial%43       
37    wall                motorBike_dial-holder%44      
38    wall                motorBike_rear-susp%45        
39    wall                motorBike_rear-brake-lights%46
40    wall                motorBike_rear-light-bracket%47
41    wall                motorBike_frame%48            
42    wall                motorBike_rear-mud-guard%49   
43    wall                motorBike_rear-susp-spring-damp%50
44    wall                motorBike_fairing-inner-plate%51
45    wall                motorBike_clutch-housing%52   
46    wall                motorBike_radiator%53         
47    wall                motorBike_water-pipe%54       
48    wall                motorBike_water-pump%55       
49    wall                motorBike_engine%56           
50    wall                motorBike_rear-shock-link%57  
51    wall                motorBike_rear-brake-fluid-pot-bracket%58
52    wall                motorBike_rear-brake-fluid-pot%59
53    wall                motorBike_footpeg%60          
54    wall                motorBike_rr-wh-chain-hub%61  
55    wall                motorBike_rear-brake-caliper%62
56    wall                motorBike_rider-helmet%65     
57    wall                motorBike_rider-visor%66      
58    wall                motorBike_rider-boots%67      
59    wall                motorBike_rider-gloves%68     
60    wall                motorBike_rider-body%69       
61    wall                motorBike_frame:0%70          
62    wall                motorBike_frt-fairing:001-shadow%74
63    wall                motorBike_windshield-shadow%75
64    wall                motorBike_fr-mud-guard-shadow%81
65    wall                motorBike_fr-wh-brake-disk-shadow%83
66    wall                motorBike_rear-mud-guard-shadow%84
67    wall                motorBike_rear-susp-spring-damp-shadow%85
68    wall                motorBike_radiator-shadow%86  
69    wall                motorBike_rear-shock-link-shadow%87
70    wall                motorBike_rear-brake-fluid-pot-bracket-shadow%88
71    wall                motorBike_rr-wh-chain-hub-shadow%89

Added patches in = 0.02 s

Edge intersection testing:
    Number of edges             : 4224
    Number of edges to retest   : 0
    Number of intersected edges : 2
Decomposition method hierarchical [6]

Refinement phase
----------------

Found point (3.0001 3.0001 0.43) in cell 21 on processor 4

Feature refinement iteration 0
------------------------------

Marked for refinement due to explicit features             : 10 cells.
Determined cells to refine in = 0.02 s
Selected for feature refinement : 10 cells (out of 1280)
Edge intersection testing:
    Number of edges             : 4479
    Number of edges to retest   : 388
    Number of intersected edges : 26
Refined mesh in = 0 s
After refinement feature refinement iteration 0 : cells:1350  faces:4479  points:1823  unbalance:0.102222
Cells per refinement level:
    0	1270
    1	80
Balancing since max unbalance 0.102222 is larger than allowable 0.1
Balanced mesh in = 0.01 s
After balancing feature refinement iteration 0 : cells:1350  faces:4479  points:1823  unbalance:0.00888889
Cells per refinement level:
    0	1270
    1	80

Feature refinement iteration 1
------------------------------

Marked for refinement due to explicit features             : 26 cells.
Determined cells to refine in = 0.02 s
Selected for feature refinement : 32 cells (out of 1350)
Edge intersection testing:
    Number of edges             : 5259
    Number of edges to retest   : 1149
    Number of intersected edges : 127
Refined mesh in = 0 s
After refinement feature refinement iteration 1 : cells:1574  faces:5259  points:2167  unbalance:0.212198
Cells per refinement level:
    0	1264
    1	102
    2	208
Balancing since max unbalance 0.212198 is larger than allowable 0.1
Balanced mesh in = 0.01 s
After balancing feature refinement iteration 1 : cells:1574  faces:5259  points:2167  unbalance:0.00508259
Cells per refinement level:
    0	1264
    1	102
    2	208

Feature refinement iteration 2
------------------------------

Marked for refinement due to explicit features             : 100 cells.
Determined cells to refine in = 0.02 s
Selected for feature refinement : 120 cells (out of 1574)
Edge intersection testing:
    Number of edges             : 8103
    Number of edges to retest   : 3798
    Number of intersected edges : 726
Refined mesh in = 0.01 s
After refinement feature refinement iteration 2 : cells:2414  faces:8103  points:3354  unbalance:0.351284
Cells per refinement level:
    0	1260
    1	118
    2	236
    3	800
Balancing since max unbalance 0.351284 is larger than allowable 0.1
Balanced mesh in = 0.01 s
After balancing feature refinement iteration 2 : cells:2414  faces:8103  points:3354  unbalance:0.001657
Cells per refinement level:
    0	1260
    1	118
    2	236
    3	800

Feature refinement iteration 3
------------------------------

Marked for refinement due to explicit features             : 447 cells.
Determined cells to refine in = 0.03 s
Selected for feature refinement : 539 cells (out of 2414)
Edge intersection testing:
    Number of edges             : 20616
    Number of edges to retest   : 16350
    Number of intersected edges : 3115
Refined mesh in = 0.01 s
After refinement feature refinement iteration 3 : cells:6187  faces:20616  points:8337  unbalance:0.61015
Cells per refinement level:
    0	1252
    1	159
    2	359
    3	841
    4	3576
Balancing since max unbalance 0.61015 is larger than allowable 0.1
Balanced mesh in = 0.02 s
After balancing feature refinement iteration 3 : cells:6187  faces:20616  points:8337  unbalance:0.0011314
Cells per refinement level:
    0	1252
    1	159
    2	359
    3	841
    4	3576

Feature refinement iteration 4
------------------------------

Marked for refinement due to explicit features             : 1726 cells.
Determined cells to refine in = 0.04 s
Selected for feature refinement : 2001 cells (out of 6187)
Edge intersection testing:
    Number of edges             : 68094
    Number of edges to retest   : 62382
    Number of intersected edges : 11403
Refined mesh in = 0.04 s
After refinement feature refinement iteration 4 : cells:20194  faces:68094  points:27936  unbalance:0.298505
Cells per refinement level:
    0	1250
    1	168
    2	380
    3	890
    4	3698
    5	13808
Balancing since max unbalance 0.298505 is larger than allowable 0.1
Balanced mesh in = 0.04 s
After balancing feature refinement iteration 4 : cells:20194  faces:68094  points:27936  unbalance:0.000990393
Cells per refinement level:
    0	1250
    1	168
    2	380
    3	890
    4	3698
    5	13808

Feature refinement iteration 5
------------------------------

Marked for refinement due to explicit features             : 5267 cells.
Determined cells to refine in = 0.07 s
Selected for feature refinement : 6710 cells (out of 20194)
Edge intersection testing:
    Number of edges             : 230619
    Number of edges to retest   : 222164
    Number of intersected edges : 36494
Refined mesh in = 0.1 s
After refinement feature refinement iteration 5 : cells:67164  faces:230619  points:97962  unbalance:0.0570842
Cells per refinement level:
    0	1249
    1	175
    2	371
    3	888
    4	3516
    5	18829
    6	42136
Skipping balancing since max unbalance 0.0570842 is less than allowable 0.1

Feature refinement iteration 6
------------------------------

Marked for refinement due to explicit features             : 0 cells.
Determined cells to refine in = 0.16 s
Selected for feature refinement : 0 cells (out of 67164)
Stopping refining since too few cells selected.


Surface refinement iteration 0
------------------------------

Marked for refinement due to surface intersection          : 708 cells.
Marked for refinement due to curvature/regions             : 5572 cells.
Determined cells to refine in = 0.04 s
Selected for refinement : 6695 cells (out of 67164)
Edge intersection testing:
    Number of edges             : 378015
    Number of edges to retest   : 295136
    Number of intersected edges : 50038
Refined mesh in = 0.19 s
After refinement surface refinement iteration 0 : cells:114029  faces:378015  points:150294  unbalance:0.173123
Cells per refinement level:
    0	1246
    1	196
    2	366
    3	1015
    4	3373
    5	21121
    6	86712
Balancing since max unbalance 0.173123 is larger than allowable 0.1
Balanced mesh in = 0.24 s
After balancing surface refinement iteration 0 : cells:114029  faces:378015  points:150294  unbalance:0.00132422
Cells per refinement level:
    0	1246
    1	196
    2	366
    3	1015
    4	3373
    5	21121
    6	86712

Surface refinement iteration 1
------------------------------

Marked for refinement due to surface intersection          : 99 cells.
Marked for refinement due to curvature/regions             : 1340 cells.
Determined cells to refine in = 0.06 s
Selected for refinement : 1544 cells (out of 114029)
Edge intersection testing:
    Number of edges             : 412890
    Number of edges to retest   : 81147
    Number of intersected edges : 53698
Refined mesh in = 0.14 s
After refinement surface refinement iteration 1 : cells:124837  faces:412890  points:163365  unbalance:0.0431042
Cells per refinement level:
    0	1246
    1	196
    2	362
    3	1024
    4	3380
    5	21197
    6	97432
Skipping balancing since max unbalance 0.0431042 is less than allowable 0.1

Surface refinement iteration 2
------------------------------

Marked for refinement due to surface intersection          : 0 cells.
Marked for refinement due to curvature/regions             : 105 cells.
Determined cells to refine in = 0.06 s
Selected for refinement : 123 cells (out of 124837)
Edge intersection testing:
    Number of edges             : 415623
    Number of edges to retest   : 8752
    Number of intersected edges : 53893
Refined mesh in = 0.12 s
After refinement surface refinement iteration 2 : cells:125698  faces:415623  points:164343  unbalance:0.0543366
Cells per refinement level:
    0	1246
    1	196
    2	362
    3	1022
    4	3380
    5	21220
    6	98272
Skipping balancing since max unbalance 0.0543366 is less than allowable 0.1

Surface refinement iteration 3
------------------------------

Marked for refinement due to surface intersection          : 0 cells.
Marked for refinement due to curvature/regions             : 4 cells.
Determined cells to refine in = 0.06 s
Selected for refinement : 4 cells (out of 125698)
Edge intersection testing:
    Number of edges             : 415704
    Number of edges to retest   : 345
    Number of intersected edges : 53899
Refined mesh in = 0.12 s
After refinement surface refinement iteration 3 : cells:125726  faces:415704  points:164368  unbalance:0.055438
Cells per refinement level:
    0	1246
    1	196
    2	362
    3	1022
    4	3380
    5	21216
    6	98304
Skipping balancing since max unbalance 0.055438 is less than allowable 0.1

Surface refinement iteration 4
------------------------------

Marked for refinement due to surface intersection          : 0 cells.
Marked for refinement due to curvature/regions             : 0 cells.
Determined cells to refine in = 0.05 s
Selected for refinement : 0 cells (out of 125726)
Stopping refining since too few cells selected.


Removing mesh beyond surface intersections
------------------------------------------

Setting cellZones according to locationsInMesh:
Location : (3.0001 3.0001 0.43)
    cellZone : none

For cellZone none found point (3.0001 3.0001 0.43) in global region 0 out of 46 regions.
--> FOAM Warning : 
    From void Foam::meshRefinement::nearestFace(const Foam::labelUList&, const Foam::bitSet&, Foam::autoPtr<Foam::mapDistribute>&, Foam::labelList&, Foam::label) const
    in file meshRefinement/meshRefinement.C at line 527
    Did not visit some faces, e.g. face 0 at (-4 -3.5 0.5)
Keeping all cells containing inside points
Selected for keeping : 118675 cells.
Edge intersection testing:
    Number of edges             : 401220
    Number of edges to retest   : 18608
    Number of intersected edges : 53899

Shell refinement iteration 0
----------------------------

Marked for refinement due to distance to explicit features : 0 cells.
Marked for refinement due to refinement shells             : 1324 cells.
Determined cells to refine in = 0.19 s
Selected for internal refinement : 15305 cells (out of 118675)
Edge intersection testing:
    Number of edges             : 718929
    Number of edges to retest   : 619471
    Number of intersected edges : 56827
Refined mesh in = 0.3 s
After refinement shell refinement iteration 0 : cells:225810  faces:718929  points:265120  unbalance:0.137744
Cells per refinement level:
    0	1167
    1	697
    2	1105
    3	2440
    4	9941
    5	18602
    6	191858
Balancing since max unbalance 0.137744 is larger than allowable 0.1
Balanced mesh in = 0.45 s
After balancing shell refinement iteration 0 : cells:225810  faces:718929  points:265132  unbalance:0.000903414
Cells per refinement level:
    0	1167
    1	697
    2	1105
    3	2440
    4	9941
    5	18602
    6	191858

Shell refinement iteration 1
----------------------------

Marked for refinement due to distance to explicit features : 0 cells.
Marked for refinement due to refinement shells             : 2412 cells.
Determined cells to refine in = 0.07 s
Selected for internal refinement : 5071 cells (out of 225810)
Edge intersection testing:
    Number of edges             : 826908
    Number of edges to retest   : 245786
    Number of intersected edges : 57410
Refined mesh in = 0.26 s
After refinement shell refinement iteration 1 : cells:261307  faces:826908  points:302079  unbalance:0.0806829
Cells per refinement level:
    0	1060
    1	1302
    2	2620
    3	4448
    4	24713
    5	22762
    6	204402
Skipping balancing since max unbalance 0.0806829 is less than allowable 0.1

Shell refinement iteration 2
----------------------------

Marked for refinement due to distance to explicit features : 0 cells.
Marked for refinement due to refinement shells             : 3888 cells.
Determined cells to refine in = 0.07 s
Selected for internal refinement : 4601 cells (out of 261307)
Edge intersection testing:
    Number of edges             : 925890
    Number of edges to retest   : 140752
    Number of intersected edges : 57413
Refined mesh in = 0.29 s
After refinement shell refinement iteration 2 : cells:293514  faces:925890  points:336683  unbalance:0.182322
Cells per refinement level:
    0	994
    1	1574
    2	3452
    3	11232
    4	48156
    5	23624
    6	204482
Balancing since max unbalance 0.182322 is larger than allowable 0.1
Balanced mesh in = 0.62 s
After balancing shell refinement iteration 2 : cells:293514  faces:925890  points:336683  unbalance:0.000919888
Cells per refinement level:
    0	994
    1	1574
    2	3452
    3	11232
    4	48156
    5	23624
    6	204482

Shell refinement iteration 3
----------------------------

Marked for refinement due to distance to explicit features : 0 cells.
Marked for refinement due to refinement shells             : 7912 cells.
Determined cells to refine in = 0.08 s
Selected for internal refinement : 8472 cells (out of 293514)
Edge intersection testing:
    Number of edges             : 1107816
    Number of edges to retest   : 224184
    Number of intersected edges : 57413
Refined mesh in = 0.36 s
After refinement shell refinement iteration 3 : cells:352818  faces:1107816  points:400043  unbalance:0.308505
Cells per refinement level:
    0	974
    1	1518
    2	4498
    3	9136
    4	108570
    5	23640
    6	204482
Balancing since max unbalance 0.308505 is larger than allowable 0.1
Balanced mesh in = 0.74 s
After balancing shell refinement iteration 3 : cells:352818  faces:1107816  points:400065  unbalance:0.000986344
Cells per refinement level:
    0	974
    1	1518
    2	4498
    3	9136
    4	108570
    5	23640
    6	204482

Shell refinement iteration 4
----------------------------

Marked for refinement due to distance to explicit features : 0 cells.
Marked for refinement due to refinement shells             : 2880 cells.
Determined cells to refine in = 0.1 s
Selected for internal refinement : 3406 cells (out of 352818)
Edge intersection testing:
    Number of edges             : 1179966
    Number of edges to retest   : 114269
    Number of intersected edges : 57413
Refined mesh in = 0.34 s
After refinement shell refinement iteration 4 : cells:376660  faces:1179966  points:424533  unbalance:0.125609
Cells per refinement level:
    0	936
    1	1738
    2	4768
    3	9472
    4	131608
    5	23656
    6	204482
Balancing since max unbalance 0.125609 is larger than allowable 0.1
Balanced mesh in = 0.64 s
After balancing shell refinement iteration 4 : cells:376660  faces:1179966  points:424535  unbalance:0.000791164
Cells per refinement level:
    0	936
    1	1738
    2	4768
    3	9472
    4	131608
    5	23656
    6	204482

Shell refinement iteration 5
----------------------------

Marked for refinement due to distance to explicit features : 0 cells.
Marked for refinement due to refinement shells             : 0 cells.
Determined cells to refine in = 0.1 s
Selected for internal refinement : 33 cells (out of 376660)
Edge intersection testing:
    Number of edges             : 1180668
    Number of edges to retest   : 2395
    Number of intersected edges : 57413
Refined mesh in = 0.36 s
After refinement shell refinement iteration 5 : cells:376891  faces:1180668  points:424775  unbalance:0.00168484
Cells per refinement level:
    0	934
    1	1724
    2	5008
    3	9472
    4	131608
    5	23655
    6	204490
Skipping balancing since max unbalance 0.00168484 is less than allowable 0.1

Shell refinement iteration 6
----------------------------

Marked for refinement due to distance to explicit features : 0 cells.
Marked for refinement due to refinement shells             : 0 cells.
Determined cells to refine in = 0.1 s
Selected for internal refinement : 6 cells (out of 376891)
Stopping refining since too few cells selected.


Dangling coarse cells refinement iteration 0
--------------------------------------------

Determined cells to refine in = 0.01 s
Selected for refinement : 108 cells (out of 376891)
Edge intersection testing:
    Number of edges             : 1182273
    Number of edges to retest   : 12989
    Number of intersected edges : 57417
Refined mesh in = 0.36 s
After refinement coarse cell refinement iteration 0 : cells:377647  faces:1182273  points:424986  unbalance:0.00177679
Cells per refinement level:
    0	934
    1	1724
    2	5008
    3	9472
    4	131606
    5	23565
    6	205338
Skipping balancing since max unbalance 0.00177679 is less than allowable 0.1

Dangling coarse cells refinement iteration 1
--------------------------------------------

Determined cells to refine in = 0.04 s
Selected for refinement : 10 cells (out of 377647)
Stopping refining since too few cells selected.


Dangling coarse cells refinement iteration 0
--------------------------------------------

Determined cells to refine in = 0 s
Selected for refinement : 21 cells (out of 377647)
Edge intersection testing:
    Number of edges             : 1182525
    Number of edges to retest   : 2750
    Number of intersected edges : 57415
Refined mesh in = 0.32 s
After refinement coarse cell refinement iteration 0 : cells:377794  faces:1182525  points:425007  unbalance:0.0021652
Cells per refinement level:
    0	934
    1	1724
    2	5008
    3	9472
    4	131606
    5	23544
    6	205506
Skipping balancing since max unbalance 0.0021652 is less than allowable 0.1

Dangling coarse cells refinement iteration 1
--------------------------------------------

Determined cells to refine in = 0.04 s
Selected for refinement : 0 cells (out of 377794)
Stopping refining since too few cells selected.


Refinement transition refinement iteration 0
--------------------------------------------

Determined cells to refine in = 0.01 s
Selected for refinement : 9 cells (out of 377794)
Edge intersection testing:
    Number of edges             : 1182705
    Number of edges to retest   : 985
    Number of intersected edges : 57427
Refined mesh in = 0.37 s
After refinement interface cell refinement iteration 0 : cells:377857  faces:1182705  points:425052  unbalance:0.00199811
Cells per refinement level:
    0	934
    1	1724
    2	5008
    3	9472
    4	131606
    5	23535
    6	205578
Skipping balancing since max unbalance 0.00199811 is less than allowable 0.1

Refinement transition refinement iteration 1
--------------------------------------------

Determined cells to refine in = 0.03 s
Selected for refinement : 0 cells (out of 377857)
Stopping refining since too few cells selected.


Splitting mesh at surface intersections
---------------------------------------

Introducing baffles for 57427 faces that are intersected by the surface.

Setting cellZones according to locationsInMesh:
Location : (3.0001 3.0001 0.43)
    cellZone : none

For cellZone none found point (3.0001 3.0001 0.43) in global region 0 out of 47 regions.
Edge intersection testing:
    Number of edges             : 1240077
    Number of edges to retest   : 309872
    Number of intersected edges : 114733
Created baffles in = 0.43 s


After introducing baffles : cells:377857  faces:1240077  points:425235  unbalance:0.00199811
Cells per refinement level:
    0	934
    1	1724
    2	5008
    3	9472
    4	131606
    5	23535
    6	205578

Introducing baffles to block off problem cells
----------------------------------------------

markFacesOnProblemCells : marked 44342 additional internal faces to be converted into baffles.
Analyzed problem cells in = 0.22 s


Introducing baffles to delete problem cells.

Edge intersection testing:
    Number of edges             : 1283721
    Number of edges to retest   : 172547
    Number of intersected edges : 114733
Created baffles in = 0.3 s


After introducing baffles : cells:377857  faces:1283721  points:425911  unbalance:0.00199811
Cells per refinement level:
    0	934
    1	1724
    2	5008
    3	9472
    4	131606
    5	23535
    6	205578
Setting cellZones according to locationsInMesh:
Location : (3.0001 3.0001 0.43)
    cellZone : none

For cellZone none found point (3.0001 3.0001 0.43) in global region 0 out of 19773 regions.
Edge intersection testing:
    Number of edges             : 1283721
    Number of edges to retest   : 334495
    Number of intersected edges : 114733

Remove unreachable sections of mesh
-----------------------------------

Keeping all cells containing points 1((3.0001 3.0001 0.43))
Selected for keeping : 325815 cells.
Edge intersection testing:
    Number of edges             : 1043662
    Number of edges to retest   : 0
    Number of intersected edges : 59804
Split mesh in = 0.8 s


After subsetting : cells:325815  faces:1043662  points:382710  unbalance:0.13306
Cells per refinement level:
    0	934
    1	1724
    2	5008
    3	9472
    4	131606
    5	23047
    6	154024

Introducing zones for interfaces
--------------------------------

Setting cellZones according to locationsInMesh:
Location : (3.0001 3.0001 0.43)
    cellZone : none

For cellZone none found point (3.0001 3.0001 0.43) in global region 0 out of 1 regions.
Setting faceZones according to neighbouring cellZones:

Edge intersection testing:
    Number of edges             : 1043662
    Number of edges to retest   : 0
    Number of intersected edges : 59804

Handling cells with snap problems
---------------------------------

Introducing baffles for 59804 faces that are intersected by the surface.

Setting cellZones according to locationsInMesh:
Location : (3.0001 3.0001 0.43)
    cellZone : none

For cellZone none found point (3.0001 3.0001 0.43) in global region 0 out of 1 regions.
Edge intersection testing:
    Number of edges             : 1043662
    Number of edges to retest   : 181316
    Number of intersected edges : 59804
Created baffles in = 0.7 s


After introducing baffles : cells:325815  faces:1043662  points:382710  unbalance:0.13306
Cells per refinement level:
    0	934
    1	1724
    2	5008
    3	9472
    4	131606
    5	23047
    6	154024

Introducing baffles to block off problem cells
----------------------------------------------

markFacesOnProblemCells : marked 73 additional internal faces to be converted into baffles.
Analyzed problem cells in = 0.17 s


Introducing baffles to delete problem cells.

Edge intersection testing:
    Number of edges             : 1043735
    Number of edges to retest   : 402
    Number of intersected edges : 59804
Created baffles in = 0.19 s


After introducing baffles : cells:325815  faces:1043735  points:382710  unbalance:0.13306
Cells per refinement level:
    0	934
    1	1724
    2	5008
    3	9472
    4	131606
    5	23047
    6	154024
Setting cellZones according to locationsInMesh:
Location : (3.0001 3.0001 0.43)
    cellZone : none

For cellZone none found point (3.0001 3.0001 0.43) in global region 0 out of 37 regions.
Edge intersection testing:
    Number of edges             : 1043735
    Number of edges to retest   : 181386
    Number of intersected edges : 59804

Remove unreachable sections of mesh
-----------------------------------

Keeping all cells containing points 1((3.0001 3.0001 0.43))
Selected for keeping : 325779 cells.
Edge intersection testing:
    Number of edges             : 1043519
    Number of edges to retest   : 0
    Number of intersected edges : 59745
Split mesh in = 0.56 s


After subsetting : cells:325779  faces:1043519  points:382650  unbalance:0.133185
Cells per refinement level:
    0	934
    1	1724
    2	5008
    3	9472
    4	131606
    5	23047
    6	153988

Merge free-standing baffles
---------------------------

freeStandingBaffles : detected 367 free-standing baffles out of 7882

freeStandingBaffles : detected 50 planar (within 30 degrees) free-standing baffles out of 367

Detected free-standing baffles : 50
Edge intersection testing:
    Number of edges             : 1043469
    Number of edges to retest   : 50
    Number of intersected edges : 59695

Introducing baffles to block off problem cells
----------------------------------------------

markFacesOnProblemCells : marked 58 additional internal faces to be converted into baffles.
Analyzed problem cells in = 0.44 s


Introducing baffles to delete problem cells.

Edge intersection testing:
    Number of edges             : 1043527
    Number of edges to retest   : 310
    Number of intersected edges : 59695
Created baffles in = 0.19 s


After introducing baffles : cells:325779  faces:1043527  points:382650  unbalance:0.133185
Cells per refinement level:
    0	934
    1	1724
    2	5008
    3	9472
    4	131606
    5	23047
    6	153988

Remove unreachable sections of mesh
-----------------------------------

Keeping all cells containing points 1((3.0001 3.0001 0.43))
Selected for keeping : 325750 cells.
Edge intersection testing:
    Number of edges             : 1043353
    Number of edges to retest   : 0
    Number of intersected edges : 59653
Merged free-standing baffles in = 0.24 s


dupNonManifoldPoints : Found : 8013 non-manifold points (out of 401298)
Edge intersection testing:
    Number of edges             : 1043353
    Number of edges to retest   : 0
    Number of intersected edges : 59653
Detected unsplittable baffles : 123
Edge intersection testing:
    Number of edges             : 1043230
    Number of edges to retest   : 123
    Number of intersected edges : 59530
Merged free-standing baffles in = 0.52 s.

Merge refined boundary faces
----------------------------

Merging 44 sets of faces.

Edge intersection testing:
    Number of edges             : 1043164
    Number of edges to retest   : 429
    Number of intersected edges : 59462

Undo iteration 0
----------------
Checking faces in error :
    non-orthogonality > 65  degrees                        : 0
    faces with face pyramid volume < 1e-13                 : 0
    faces with face-decomposition tet quality < 1e-15      : 0
    faces with concavity > 80  degrees                     : 0
    faces with skewness > 4   (internal) or 20  (boundary) : 0
    faces with interpolation weights (0..1)  < 0.02        : 0
    faces with volume ratio of neighbour cells < 0.01      : 0
    faces with face twist < 0.02                           : 0
    faces on cells with determinant < 0.001                : 0

Merging all points on surface that
- are used by only two boundary faces and
- make an angle with a cosine of more than 0.707107.

Removing 48 straight edge points ...

Edge intersection testing:
    Number of edges             : 1043164
    Number of edges to retest   : 434
    Number of intersected edges : 59462

Undo iteration 0
----------------
Checking faces in error :
    non-orthogonality > 65  degrees                        : 0
    faces with face pyramid volume < 1e-13                 : 0
    faces with face-decomposition tet quality < 1e-15      : 0
    faces with concavity > 80  degrees                     : 0
    faces with skewness > 4   (internal) or 20  (boundary) : 0
    faces with interpolation weights (0..1)  < 0.02        : 0
    faces with volume ratio of neighbour cells < 0.01      : 0
    faces with face twist < 0.02                           : 0
    faces on cells with determinant < 0.001                : 0

Doing final balancing
---------------------

Found 0 zoned faces to keep together.
Found 0 separated coupled faces to keep together.
Refined mesh : cells:325750  faces:1043164  points:390419  unbalance:0.00132003
Cells per refinement level:
    0	934
    1	1724
    2	5008
    3	9472
    4	131606
    5	23047
    6	153959
Writing mesh to time constant
Wrote mesh in = 0.05 s.
Mesh refined in = 14.21 s.

Morphing phase
--------------

Duplicating 0 points on faceZones of type boundary
Snapping to features in 10 iterations ...
Constructing mesh displacer ...
Using mesh parameters 
{
    maxNonOrtho     65;
    maxBoundarySkewness 20;
    maxInternalSkewness 4;
    maxConcave      80;
    minVol          1e-13;
    minTetQuality   1e-15;
    minArea         -1;
    minTwist        0.02;
    minDeterminant  0.001;
    minFaceWeight   0.02;
    minVolRatio     0.01;
    minTriangleTwist -1;
    minEdgeLength   -1;
    nSmoothScale    4;
    errorReduction  0.75;
}


Checking initial mesh ...
Checking faces in error :
    non-orthogonality > 65  degrees                        : 0
    faces with face pyramid volume < 1e-13                 : 0
    faces with face-decomposition tet quality < 1e-15      : 0
    faces with concavity > 80  degrees                     : 0
    faces with skewness > 4   (internal) or 20  (boundary) : 0
    faces with interpolation weights (0..1)  < 0.02        : 0
    faces with volume ratio of neighbour cells < 0.01      : 0
    faces with face twist < 0.02                           : 0
    faces on cells with determinant < 0.001                : 0
Detected 0 illegal faces (concave, zero area or negative cell pyramid volume)
Checked initial mesh in = 1.73 s


Smoothing patch points ...
Smoothing iteration 0
Found 16068 non-manifold point(s).

Scaling iteration 0
Moving mesh using displacement scaling : min:1  max:1
Checking faces in error :
    non-orthogonality > 65  degrees                        : 0
    faces with face pyramid volume < 1e-13                 : 0
    faces with face-decomposition tet quality < 1e-15      : 1
    faces with concavity > 80  degrees                     : 0
    faces with skewness > 4   (internal) or 20  (boundary) : 0
    faces with interpolation weights (0..1)  < 0.02        : 0
    faces with volume ratio of neighbour cells < 0.01      : 0
    faces with face twist < 0.02                           : 0
    faces on cells with determinant < 0.001                : 0

Scaling iteration 1
Moving mesh using displacement scaling : min:0.75  max:1
Checking faces in error :
    non-orthogonality > 65  degrees                        : 0
    faces with face pyramid volume < 1e-13                 : 0
    faces with face-decomposition tet quality < 1e-15      : 0
    faces with concavity > 80  degrees                     : 0
    faces with skewness > 4   (internal) or 20  (boundary) : 0
    faces with interpolation weights (0..1)  < 0.02        : 0
    faces with volume ratio of neighbour cells < 0.01      : 0
    faces with face twist < 0.02                           : 0
    faces on cells with determinant < 0.001                : 0
Successfully moved mesh

Smoothing iteration 1
Found 0 non-manifold point(s).

Scaling iteration 0
Moving mesh using displacement scaling : min:1  max:1
Checking faces in error :
    non-orthogonality > 65  degrees                        : 0
    faces with face pyramid volume < 1e-13                 : 0
    faces with face-decomposition tet quality < 1e-15      : 0
    faces with concavity > 80  degrees                     : 0
    faces with skewness > 4   (internal) or 20  (boundary) : 0
    faces with interpolation weights (0..1)  < 0.02        : 0
    faces with volume ratio of neighbour cells < 0.01      : 0
    faces with face twist < 0.02                           : 1
    faces on cells with determinant < 0.001                : 0

Scaling iteration 1
Moving mesh using displacement scaling : min:0.75  max:1
Checking faces in error :
    non-orthogonality > 65  degrees                        : 0
    faces with face pyramid volume < 1e-13                 : 0
    faces with face-decomposition tet quality < 1e-15      : 0
    faces with concavity > 80  degrees                     : 0
    faces with skewness > 4   (internal) or 20  (boundary) : 0
    faces with interpolation weights (0..1)  < 0.02        : 0
    faces with volume ratio of neighbour cells < 0.01      : 0
    faces with face twist < 0.02                           : 0
    faces on cells with determinant < 0.001                : 0
Successfully moved mesh

Smoothing iteration 2
Found 0 non-manifold point(s).

Scaling iteration 0
Moving mesh using displacement scaling : min:1  max:1
Checking faces in error :
    non-orthogonality > 65  degrees                        : 0
    faces with face pyramid volume < 1e-13                 : 0
    faces with face-decomposition tet quality < 1e-15      : 0
    faces with concavity > 80  degrees                     : 0
    faces with skewness > 4   (internal) or 20  (boundary) : 0
    faces with interpolation weights (0..1)  < 0.02        : 0
    faces with volume ratio of neighbour cells < 0.01      : 0
    faces with face twist < 0.02                           : 0
    faces on cells with determinant < 0.001                : 0
Successfully moved mesh

Patch points smoothed in = 0.85 s



Morph iteration 0
-----------------
Calculating patchDisplacement as distance to nearest surface point ...
    non-zone points : attract to nearest of all non-zone surfaces
    zone points     : attract to zone surface only

Wanted displacement : average:0.00361253 min:5.68792e-09 max:0.0192828
Calculated surface displacement in = 0.05 s


Detecting near surfaces ...
Overriding nearest with intersection of close gaps at 206 out of 63913 points.
Overriding displacement on features :
   implicit features    : false
   explicit features    : true
   multi-patch features : false

Detected 1058 baffle edges out of 125828 edges.
Baffle points     : 1247 of which attracted to :
    feature point : 0
    feature edge  : 1244
    rest          : 3

Initially selected 21659 mesh points out of 63913 for reverse attraction.
Selected 42451 mesh points out of 63913 for reverse attraction.
Stringing feature edges : changed 1953 points
Stringing feature edges : changed 176 points
Stringing feature edges : changed 47 points
Stringing feature edges : changed 33 points
Stringing feature edges : changed 16 points
Stringing feature edges : changed 9 points
Stringing feature edges : changed 4 points
Stringing feature edges : changed 1 points
Stringing feature edges : changed 0 points
Attraction:
    linear   : max:(0.00682897 0.0159368 -0.00843857) avg:(-1.1693e-05 -3.2437e-05 8.70376e-06)
    feature  : max:(0.060327 -0.00692138 -0.00691761) avg:(1.96512e-05 1.22921e-05 -1.59702e-05)
Feature analysis : total master points :61771 of which attracted to :
    feature point   : 1153
    feature edge    : 10527
    nearest surface : 0
    rest            : 50091

--> FOAM Warning : Displacement (0.000267463 -0.000119107 0.000128544) at mesh point 12413 coord (0.38334 -0.269169 0.624615) points through the surrounding patch faces
Smoothing displacement ...
Iteration 0
Iteration 10
Iteration 20
Displacement smoothed in = 0.64 s


Moving mesh ...

Iteration 0
Moving mesh using displacement scaling : min:1  max:1
Checking faces in error :
    non-orthogonality > 65  degrees                        : 0
    faces with face pyramid volume < 1e-13                 : 0
    faces with face-decomposition tet quality < 1e-15      : 0
    faces with concavity > 80  degrees                     : 0
    faces with skewness > 4   (internal) or 20  (boundary) : 0
    faces with interpolation weights (0..1)  < 0.02        : 0
    faces with volume ratio of neighbour cells < 0.01      : 0
    faces with face twist < 0.02                           : 0
    faces on cells with determinant < 0.001                : 0
Successfully moved mesh
Moved mesh in = 0.18 s



Morph iteration 1
-----------------
Calculating patchDisplacement as distance to nearest surface point ...
    non-zone points : attract to nearest of all non-zone surfaces
    zone points     : attract to zone surface only

Wanted displacement : average:0.00337485 min:5.13337e-08 max:0.0192279
Calculated surface displacement in = 0.05 s


Detecting near surfaces ...
Overriding nearest with intersection of close gaps at 202 out of 63913 points.
Overriding displacement on features :
   implicit features    : false
   explicit features    : true
   multi-patch features : false

Detected 1076 baffle edges out of 125828 edges.
Baffle points     : 1253 of which attracted to :
    feature point : 0
    feature edge  : 1250
    rest          : 3

Initially selected 21597 mesh points out of 63913 for reverse attraction.
Selected 42491 mesh points out of 63913 for reverse attraction.
Stringing feature edges : changed 1906 points
Stringing feature edges : changed 149 points
Stringing feature edges : changed 45 points
Stringing feature edges : changed 21 points
Stringing feature edges : changed 13 points
Stringing feature edges : changed 5 points
Stringing feature edges : changed 3 points
Stringing feature edges : changed 3 points
Stringing feature edges : changed 0 points
Attraction:
    linear   : max:(-2.4453e-05 -0.0192264 -0.000238143) avg:(-1.45258e-05 -3.06573e-05 7.22708e-06)
    feature  : max:(0.0573933 0.00267866 -0.0177081) avg:(2.11305e-05 1.80379e-05 -1.62811e-05)
Feature analysis : total master points :61771 of which attracted to :
    feature point   : 1140
    feature edge    : 10510
    nearest surface : 0
    rest            : 50121

--> FOAM Warning : Displacement (0.000491687 -0.000188418 0.000237036) at mesh point 12413 coord (0.383607 -0.269288 0.624743) points through the surrounding patch faces
Smoothing displacement ...
Iteration 0
Iteration 10
Iteration 20
Displacement smoothed in = 0.63 s


Moving mesh ...

Iteration 0
Moving mesh using displacement scaling : min:1  max:1
Checking faces in error :
    non-orthogonality > 65  degrees                        : 0
    faces with face pyramid volume < 1e-13                 : 0
    faces with face-decomposition tet quality < 1e-15      : 0
    faces with concavity > 80  degrees                     : 0
    faces with skewness > 4   (internal) or 20  (boundary) : 0
    faces with interpolation weights (0..1)  < 0.02        : 0
    faces with volume ratio of neighbour cells < 0.01      : 0
    faces with face twist < 0.02                           : 0
    faces on cells with determinant < 0.001                : 0
Successfully moved mesh
Moved mesh in = 0.19 s



Morph iteration 2
-----------------
Calculating patchDisplacement as distance to nearest surface point ...
    non-zone points : attract to nearest of all non-zone surfaces
    zone points     : attract to zone surface only

Wanted displacement : average:0.0029271 min:7.88281e-08 max:0.0189075
Calculated surface displacement in = 0.04 s


Detecting near surfaces ...
Overriding nearest with intersection of close gaps at 220 out of 63913 points.
Overriding displacement on features :
   implicit features    : false
   explicit features    : true
   multi-patch features : false

Detected 1133 baffle edges out of 125828 edges.
Baffle points     : 1277 of which attracted to :
    feature point : 0
    feature edge  : 1274
    rest          : 3

Initially selected 21828 mesh points out of 63913 for reverse attraction.
Selected 42574 mesh points out of 63913 for reverse attraction.
Stringing feature edges : changed 1863 points
Stringing feature edges : changed 167 points
Stringing feature edges : changed 44 points
Stringing feature edges : changed 14 points
Stringing feature edges : changed 4 points
Stringing feature edges : changed 4 points
Stringing feature edges : changed 0 points
Attraction:
    linear   : max:(-2.40455e-05 -0.018906 -0.000234175) avg:(-1.89614e-05 -2.40731e-05 6.47214e-06)
    feature  : max:(0.0564279 -0.00638423 -0.000735594) avg:(1.75603e-05 1.40034e-05 -1.65323e-05)
Feature analysis : total master points :61771 of which attracted to :
    feature point   : 1152
    feature edge    : 10579
    nearest surface : 0
    rest            : 50040

--> FOAM Warning : Displacement (0.00060807 -0.000180386 0.000294399) at mesh point 12413 coord (0.384099 -0.269477 0.62498) points through the surrounding patch faces
Smoothing displacement ...
Iteration 0
Iteration 10
Iteration 20
Displacement smoothed in = 0.61 s


Moving mesh ...

Iteration 0
Moving mesh using displacement scaling : min:1  max:1
Checking faces in error :
    non-orthogonality > 65  degrees                        : 0
    faces with face pyramid volume < 1e-13                 : 0
    faces with face-decomposition tet quality < 1e-15      : 0
    faces with concavity > 80  degrees                     : 0
    faces with skewness > 4   (internal) or 20  (boundary) : 0
    faces with interpolation weights (0..1)  < 0.02        : 0
    faces with volume ratio of neighbour cells < 0.01      : 0
    faces with face twist < 0.02                           : 0
    faces on cells with determinant < 0.001                : 0
Successfully moved mesh
Moved mesh in = 0.19 s



Morph iteration 3
-----------------
Calculating patchDisplacement as distance to nearest surface point ...
    non-zone points : attract to nearest of all non-zone surfaces
    zone points     : attract to zone surface only

Wanted displacement : average:0.00235193 min:1.07079e-08 max:0.0185342
Calculated surface displacement in = 0.04 s


Detecting near surfaces ...
Overriding nearest with intersection of close gaps at 271 out of 63913 points.
Overriding displacement on features :
   implicit features    : false
   explicit features    : true
   multi-patch features : false

Detected 1195 baffle edges out of 125828 edges.
Baffle points     : 1320 of which attracted to :
    feature point : 0
    feature edge  : 1317
    rest          : 3

Initially selected 21964 mesh points out of 63913 for reverse attraction.
Selected 42566 mesh points out of 63913 for reverse attraction.
Stringing feature edges : changed 1841 points
Stringing feature edges : changed 157 points
Stringing feature edges : changed 50 points
Stringing feature edges : changed 15 points
Stringing feature edges : changed 2 points
Stringing feature edges : changed 0 points
Attraction:
    linear   : max:(-2.35708e-05 -0.0185327 -0.000229551) avg:(-2.28573e-05 -1.55117e-05 3.12621e-06)
    feature  : max:(0.0511807 -0.00574917 0.000735742) avg:(2.42828e-05 1.14008e-05 -1.55724e-05)
Feature analysis : total master points :61771 of which attracted to :
    feature point   : 1171
    feature edge    : 10654
    nearest surface : 0
    rest            : 49946

--> FOAM Warning : Displacement (0.000595323 -9.79595e-05 0.000290104) at mesh point 12413 coord (0.384707 -0.269657 0.625275) points through the surrounding patch faces
Smoothing displacement ...
Iteration 0
Iteration 10
Iteration 20
Displacement smoothed in = 0.63 s


Moving mesh ...

Iteration 0
Moving mesh using displacement scaling : min:1  max:1
Checking faces in error :
    non-orthogonality > 65  degrees                        : 0
    faces with face pyramid volume < 1e-13                 : 0
    faces with face-decomposition tet quality < 1e-15      : 10
    faces with concavity > 80  degrees                     : 0
    faces with skewness > 4   (internal) or 20  (boundary) : 0
    faces with interpolation weights (0..1)  < 0.02        : 0
    faces with volume ratio of neighbour cells < 0.01      : 0
    faces with face twist < 0.02                           : 2
    faces on cells with determinant < 0.001                : 0

Iteration 1
Moving mesh using displacement scaling : min:0.75  max:1
Checking faces in error :
    non-orthogonality > 65  degrees                        : 0
    faces with face pyramid volume < 1e-13                 : 0
    faces with face-decomposition tet quality < 1e-15      : 5
    faces with concavity > 80  degrees                     : 0
    faces with skewness > 4   (internal) or 20  (boundary) : 0
    faces with interpolation weights (0..1)  < 0.02        : 0
    faces with volume ratio of neighbour cells < 0.01      : 0
    faces with face twist < 0.02                           : 2
    faces on cells with determinant < 0.001                : 0

Iteration 2
Moving mesh using displacement scaling : min:0.5625  max:1
Checking faces in error :
    non-orthogonality > 65  degrees                        : 0
    faces with face pyramid volume < 1e-13                 : 0
    faces with face-decomposition tet quality < 1e-15      : 1
    faces with concavity > 80  degrees                     : 0
    faces with skewness > 4   (internal) or 20  (boundary) : 0
    faces with interpolation weights (0..1)  < 0.02        : 0
    faces with volume ratio of neighbour cells < 0.01      : 0
    faces with face twist < 0.02                           : 2
    faces on cells with determinant < 0.001                : 0

Iteration 3
Moving mesh using displacement scaling : min:0.421875  max:1
Checking faces in error :
    non-orthogonality > 65  degrees                        : 0
    faces with face pyramid volume < 1e-13                 : 0
    faces with face-decomposition tet quality < 1e-15      : 1
    faces with concavity > 80  degrees                     : 0
    faces with skewness > 4   (internal) or 20  (boundary) : 0
    faces with interpolation weights (0..1)  < 0.02        : 0
    faces with volume ratio of neighbour cells < 0.01      : 0
    faces with face twist < 0.02                           : 0
    faces on cells with determinant < 0.001                : 0

Iteration 4
Moving mesh using displacement scaling : min:0.316406  max:1
Checking faces in error :
    non-orthogonality > 65  degrees                        : 0
    faces with face pyramid volume < 1e-13                 : 0
    faces with face-decomposition tet quality < 1e-15      : 0
    faces with concavity > 80  degrees                     : 0
    faces with skewness > 4   (internal) or 20  (boundary) : 0
    faces with interpolation weights (0..1)  < 0.02        : 0
    faces with volume ratio of neighbour cells < 0.01      : 0
    faces with face twist < 0.02                           : 1
    faces on cells with determinant < 0.001                : 0

Iteration 5
Displacement scaling for error reduction set to 0.
Moving mesh using displacement scaling : min:0.237305  max:1
Checking faces in error :
    non-orthogonality > 65  degrees                        : 0
    faces with face pyramid volume < 1e-13                 : 0
    faces with face-decomposition tet quality < 1e-15      : 0
    faces with concavity > 80  degrees                     : 0
    faces with skewness > 4   (internal) or 20  (boundary) : 0
    faces with interpolation weights (0..1)  < 0.02        : 0
    faces with volume ratio of neighbour cells < 0.01      : 0
    faces with face twist < 0.02                           : 0
    faces on cells with determinant < 0.001                : 0
Successfully moved mesh
Moved mesh in = 0.64 s



Morph iteration 4
-----------------
Calculating patchDisplacement as distance to nearest surface point ...
    non-zone points : attract to nearest of all non-zone surfaces
    zone points     : attract to zone surface only

Wanted displacement : average:0.0017518 min:3.83258e-10 max:0.018154
Calculated surface displacement in = 0.03 s


Detecting near surfaces ...
Overriding nearest with intersection of close gaps at 407 out of 63913 points.
Overriding displacement on features :
   implicit features    : false
   explicit features    : true
   multi-patch features : false

Detected 1220 baffle edges out of 125828 edges.
Baffle points     : 1346 of which attracted to :
    feature point : 0
    feature edge  : 1343
    rest          : 3

Initially selected 22230 mesh points out of 63913 for reverse attraction.
Selected 42528 mesh points out of 63913 for reverse attraction.
Stringing feature edges : changed 1750 points
Stringing feature edges : changed 147 points
Stringing feature edges : changed 51 points
Stringing feature edges : changed 20 points
Stringing feature edges : changed 9 points
Stringing feature edges : changed 4 points
Stringing feature edges : changed 2 points
Stringing feature edges : changed 2 points
Stringing feature edges : changed 3 points
Stringing feature edges : changed 0 points
Attraction:
    linear   : max:(-2.30873e-05 -0.0181526 -0.000224843) avg:(-2.56567e-05 -5.78486e-06 -1.19561e-06)
    feature  : max:(0.0114743 0.00321566 -0.0501799) avg:(2.08292e-05 1.19907e-05 -1.38917e-05)
Feature analysis : total master points :61771 of which attracted to :
    feature point   : 1160
    feature edge    : 10753
    nearest surface : 0
    rest            : 49858

--> FOAM Warning : Displacement (0.000483442 2.01315e-05 0.000237962) at mesh point 12413 coord (0.385302 -0.269755 0.625565) points through the surrounding patch faces
Smoothing displacement ...
Iteration 0
Iteration 10
Iteration 20
Displacement smoothed in = 0.69 s


Moving mesh ...

Iteration 0
Moving mesh using displacement scaling : min:1  max:1
Checking faces in error :
    non-orthogonality > 65  degrees                        : 1
    faces with face pyramid volume < 1e-13                 : 5
    faces with face-decomposition tet quality < 1e-15      : 72
    faces with concavity > 80  degrees                     : 0
    faces with skewness > 4   (internal) or 20  (boundary) : 0
    faces with interpolation weights (0..1)  < 0.02        : 0
    faces with volume ratio of neighbour cells < 0.01      : 0
    faces with face twist < 0.02                           : 11
    faces on cells with determinant < 0.001                : 0

Iteration 1
Moving mesh using displacement scaling : min:0.75  max:1
Checking faces in error :
    non-orthogonality > 65  degrees                        : 1
    faces with face pyramid volume < 1e-13                 : 1
    faces with face-decomposition tet quality < 1e-15      : 51
    faces with concavity > 80  degrees                     : 0
    faces with skewness > 4   (internal) or 20  (boundary) : 0
    faces with interpolation weights (0..1)  < 0.02        : 0
    faces with volume ratio of neighbour cells < 0.01      : 0
    faces with face twist < 0.02                           : 9
    faces on cells with determinant < 0.001                : 0

Iteration 2
Moving mesh using displacement scaling : min:0.5625  max:1
Checking faces in error :
    non-orthogonality > 65  degrees                        : 1
    faces with face pyramid volume < 1e-13                 : 0
    faces with face-decomposition tet quality < 1e-15      : 39
    faces with concavity > 80  degrees                     : 0
    faces with skewness > 4   (internal) or 20  (boundary) : 0
    faces with interpolation weights (0..1)  < 0.02        : 0
    faces with volume ratio of neighbour cells < 0.01      : 0
    faces with face twist < 0.02                           : 6
    faces on cells with determinant < 0.001                : 0

Iteration 3
Moving mesh using displacement scaling : min:0.421875  max:1
Checking faces in error :
    non-orthogonality > 65  degrees                        : 1
    faces with face pyramid volume < 1e-13                 : 0
    faces with face-decomposition tet quality < 1e-15      : 28
    faces with concavity > 80  degrees                     : 0
    faces with skewness > 4   (internal) or 20  (boundary) : 0
    faces with interpolation weights (0..1)  < 0.02        : 0
    faces with volume ratio of neighbour cells < 0.01      : 0
    faces with face twist < 0.02                           : 9
    faces on cells with determinant < 0.001                : 0

Iteration 4
Moving mesh using displacement scaling : min:0.316406  max:1
Checking faces in error :
    non-orthogonality > 65  degrees                        : 0
    faces with face pyramid volume < 1e-13                 : 0
    faces with face-decomposition tet quality < 1e-15      : 18
    faces with concavity > 80  degrees                     : 0
    faces with skewness > 4   (internal) or 20  (boundary) : 0
    faces with interpolation weights (0..1)  < 0.02        : 0
    faces with volume ratio of neighbour cells < 0.01      : 0
    faces with face twist < 0.02                           : 9
    faces on cells with determinant < 0.001                : 0

Iteration 5
Displacement scaling for error reduction set to 0.
Moving mesh using displacement scaling : min:0.237305  max:1
Checking faces in error :
    non-orthogonality > 65  degrees                        : 0
    faces with face pyramid volume < 1e-13                 : 0
    faces with face-decomposition tet quality < 1e-15      : 14
    faces with concavity > 80  degrees                     : 0
    faces with skewness > 4   (internal) or 20  (boundary) : 0
    faces with interpolation weights (0..1)  < 0.02        : 0
    faces with volume ratio of neighbour cells < 0.01      : 0
    faces with face twist < 0.02                           : 8
    faces on cells with determinant < 0.001                : 0

Iteration 6
Moving mesh using displacement scaling : min:0  max:1
Checking faces in error :
    non-orthogonality > 65  degrees                        : 0
    faces with face pyramid volume < 1e-13                 : 0
    faces with face-decomposition tet quality < 1e-15      : 0
    faces with concavity > 80  degrees                     : 0
    faces with skewness > 4   (internal) or 20  (boundary) : 0
    faces with interpolation weights (0..1)  < 0.02        : 0
    faces with volume ratio of neighbour cells < 0.01      : 0
    faces with face twist < 0.02                           : 0
    faces on cells with determinant < 0.001                : 0
Successfully moved mesh
Moved mesh in = 0.91 s



Morph iteration 5
-----------------
Calculating patchDisplacement as distance to nearest surface point ...
    non-zone points : attract to nearest of all non-zone surfaces
    zone points     : attract to zone surface only

Wanted displacement : average:0.0012102 min:1.55278e-08 max:0.0180467
Calculated surface displacement in = 0.03 s


Detecting near surfaces ...
Overriding nearest with intersection of close gaps at 565 out of 63913 points.
Overriding displacement on features :
   implicit features    : false
   explicit features    : true
   multi-patch features : false

Detected 1284 baffle edges out of 125828 edges.
Baffle points     : 1424 of which attracted to :
    feature point : 0
    feature edge  : 1420
    rest          : 4

Initially selected 22302 mesh points out of 63913 for reverse attraction.
Selected 42579 mesh points out of 63913 for reverse attraction.
Stringing feature edges : changed 1669 points
Stringing feature edges : changed 145 points
Stringing feature edges : changed 37 points
Stringing feature edges : changed 11 points
Stringing feature edges : changed 4 points
Stringing feature edges : changed 3 points
Stringing feature edges : changed 3 points
Stringing feature edges : changed 2 points
Stringing feature edges : changed 0 points
Attraction:
    linear   : max:(-2.29508e-05 -0.0180453 -0.000223514) avg:(-2.37982e-05 4.60615e-07 -4.72577e-06)
    feature  : max:(0.00898008 0.0030651 -0.0373952) avg:(1.24755e-05 1.07142e-05 -9.93261e-06)
Feature analysis : total master points :61771 of which attracted to :
    feature point   : 1179
    feature edge    : 10874
    nearest surface : 0
    rest            : 49718

--> FOAM Warning : Displacement (-0.000509933 -0.000283959 -0.0007285) at mesh point 5837 coord (0.375829 -0.125422 0.357314) points through the surrounding patch faces
Smoothing displacement ...
Iteration 0
Iteration 10
Iteration 20
Displacement smoothed in = 0.72 s


Moving mesh ...

Iteration 0
Moving mesh using displacement scaling : min:1  max:1
Checking faces in error :
    non-orthogonality > 65  degrees                        : 2
    faces with face pyramid volume < 1e-13                 : 32
    faces with face-decomposition tet quality < 1e-15      : 270
    faces with concavity > 80  degrees                     : 2
    faces with skewness > 4   (internal) or 20  (boundary) : 0
    faces with interpolation weights (0..1)  < 0.02        : 0
    faces with volume ratio of neighbour cells < 0.01      : 0
    faces with face twist < 0.02                           : 32
    faces on cells with determinant < 0.001                : 0

Iteration 1
Moving mesh using displacement scaling : min:0.75  max:1
Checking faces in error :
    non-orthogonality > 65  degrees                        : 2
    faces with face pyramid volume < 1e-13                 : 21
    faces with face-decomposition tet quality < 1e-15      : 181
    faces with concavity > 80  degrees                     : 2
    faces with skewness > 4   (internal) or 20  (boundary) : 0
    faces with interpolation weights (0..1)  < 0.02        : 0
    faces with volume ratio of neighbour cells < 0.01      : 0
    faces with face twist < 0.02                           : 21
    faces on cells with determinant < 0.001                : 0

Iteration 2
Moving mesh using displacement scaling : min:0.5625  max:1
Checking faces in error :
    non-orthogonality > 65  degrees                        : 1
    faces with face pyramid volume < 1e-13                 : 13
    faces with face-decomposition tet quality < 1e-15      : 149
    faces with concavity > 80  degrees                     : 1
    faces with skewness > 4   (internal) or 20  (boundary) : 0
    faces with interpolation weights (0..1)  < 0.02        : 0
    faces with volume ratio of neighbour cells < 0.01      : 0
    faces with face twist < 0.02                           : 26
    faces on cells with determinant < 0.001                : 0

Iteration 3
Moving mesh using displacement scaling : min:0.421875  max:1
Checking faces in error :
    non-orthogonality > 65  degrees                        : 1
    faces with face pyramid volume < 1e-13                 : 9
    faces with face-decomposition tet quality < 1e-15      : 108
    faces with concavity > 80  degrees                     : 0
    faces with skewness > 4   (internal) or 20  (boundary) : 0
    faces with interpolation weights (0..1)  < 0.02        : 0
    faces with volume ratio of neighbour cells < 0.01      : 0
    faces with face twist < 0.02                           : 31
    faces on cells with determinant < 0.001                : 0

Iteration 4
Moving mesh using displacement scaling : min:0.316406  max:1
Checking faces in error :
    non-orthogonality > 65  degrees                        : 1
    faces with face pyramid volume < 1e-13                 : 7
    faces with face-decomposition tet quality < 1e-15      : 88
    faces with concavity > 80  degrees                     : 0
    faces with skewness > 4   (internal) or 20  (boundary) : 0
    faces with interpolation weights (0..1)  < 0.02        : 0
    faces with volume ratio of neighbour cells < 0.01      : 0
    faces with face twist < 0.02                           : 28
    faces on cells with determinant < 0.001                : 0

Iteration 5
Displacement scaling for error reduction set to 0.
Moving mesh using displacement scaling : min:0.237305  max:1
Checking faces in error :
    non-orthogonality > 65  degrees                        : 1
    faces with face pyramid volume < 1e-13                 : 3
    faces with face-decomposition tet quality < 1e-15      : 70
    faces with concavity > 80  degrees                     : 0
    faces with skewness > 4   (internal) or 20  (boundary) : 0
    faces with interpolation weights (0..1)  < 0.02        : 0
    faces with volume ratio of neighbour cells < 0.01      : 0
    faces with face twist < 0.02                           : 25
    faces on cells with determinant < 0.001                : 0

Iteration 6
Moving mesh using displacement scaling : min:0  max:1
Checking faces in error :
    non-orthogonality > 65  degrees                        : 0
    faces with face pyramid volume < 1e-13                 : 0
    faces with face-decomposition tet quality < 1e-15      : 0
    faces with concavity > 80  degrees                     : 0
    faces with skewness > 4   (internal) or 20  (boundary) : 0
    faces with interpolation weights (0..1)  < 0.02        : 0
    faces with volume ratio of neighbour cells < 0.01      : 0
    faces with face twist < 0.02                           : 0
    faces on cells with determinant < 0.001                : 0
Successfully moved mesh
Moved mesh in = 1.06 s



Morph iteration 6
-----------------
Calculating patchDisplacement as distance to nearest surface point ...
    non-zone points : attract to nearest of all non-zone surfaces
    zone points     : attract to zone surface only

Wanted displacement : average:0.000786127 min:1.44791e-08 max:0.0179836
Calculated surface displacement in = 0.04 s


Detecting near surfaces ...
Overriding nearest with intersection of close gaps at 978 out of 63913 points.
Overriding displacement on features :
   implicit features    : false
   explicit features    : true
   multi-patch features : false

Detected 1379 baffle edges out of 125828 edges.
Baffle points     : 1560 of which attracted to :
    feature point : 0
    feature edge  : 1554
    rest          : 6

Initially selected 22639 mesh points out of 63913 for reverse attraction.
Selected 42709 mesh points out of 63913 for reverse attraction.
Stringing feature edges : changed 1620 points
Stringing feature edges : changed 171 points
Stringing feature edges : changed 40 points
Stringing feature edges : changed 16 points
Stringing feature edges : changed 6 points
Stringing feature edges : changed 1 points
Stringing feature edges : changed 0 points
Attraction:
    linear   : max:(-2.26363e-05 -0.0179822 -0.000223984) avg:(-1.89037e-05 6.31251e-06 -8.29032e-06)
    feature  : max:(-0.00467606 0.0538128 -0.00273936) avg:(3.54569e-06 1.54037e-05 -1.14167e-05)
Feature analysis : total master points :61771 of which attracted to :
    feature point   : 1232
    feature edge    : 10982
    nearest surface : 0
    rest            : 49557

--> FOAM Warning : Displacement (-6.82506e-05 -0.000338243 -0.00060956) at mesh point 5837 coord (0.375329 -0.1257 0.356601) points through the surrounding patch faces
Smoothing displacement ...
Iteration 0
Iteration 10
Iteration 20
Displacement smoothed in = 0.63 s


Moving mesh ...

Iteration 0
Moving mesh using displacement scaling : min:1  max:1
Checking faces in error :
    non-orthogonality > 65  degrees                        : 14
    faces with face pyramid volume < 1e-13                 : 75
    faces with face-decomposition tet quality < 1e-15      : 601
    faces with concavity > 80  degrees                     : 11
    faces with skewness > 4   (internal) or 20  (boundary) : 0
    faces with interpolation weights (0..1)  < 0.02        : 0
    faces with volume ratio of neighbour cells < 0.01      : 0
    faces with face twist < 0.02                           : 40
    faces on cells with determinant < 0.001                : 0

Iteration 1
Moving mesh using displacement scaling : min:0.75  max:1
Checking faces in error :
    non-orthogonality > 65  degrees                        : 4
    faces with face pyramid volume < 1e-13                 : 59
    faces with face-decomposition tet quality < 1e-15      : 473
    faces with concavity > 80  degrees                     : 6
    faces with skewness > 4   (internal) or 20  (boundary) : 0
    faces with interpolation weights (0..1)  < 0.02        : 0
    faces with volume ratio of neighbour cells < 0.01      : 0
    faces with face twist < 0.02                           : 38
    faces on cells with determinant < 0.001                : 0

Iteration 2
Moving mesh using displacement scaling : min:0.5625  max:1
Checking faces in error :
    non-orthogonality > 65  degrees                        : 3
    faces with face pyramid volume < 1e-13                 : 34
    faces with face-decomposition tet quality < 1e-15      : 399
    faces with concavity > 80  degrees                     : 5
    faces with skewness > 4   (internal) or 20  (boundary) : 0
    faces with interpolation weights (0..1)  < 0.02        : 0
    faces with volume ratio of neighbour cells < 0.01      : 0
    faces with face twist < 0.02                           : 42
    faces on cells with determinant < 0.001                : 0

Iteration 3
Moving mesh using displacement scaling : min:0.421875  max:1
Checking faces in error :
    non-orthogonality > 65  degrees                        : 1
    faces with face pyramid volume < 1e-13                 : 22
    faces with face-decomposition tet quality < 1e-15      : 325
    faces with concavity > 80  degrees                     : 4
    faces with skewness > 4   (internal) or 20  (boundary) : 0
    faces with interpolation weights (0..1)  < 0.02        : 0
    faces with volume ratio of neighbour cells < 0.01      : 0
    faces with face twist < 0.02                           : 46
    faces on cells with determinant < 0.001                : 0

Iteration 4
Moving mesh using displacement scaling : min:0.316406  max:1
Checking faces in error :
    non-orthogonality > 65  degrees                        : 1
    faces with face pyramid volume < 1e-13                 : 16
    faces with face-decomposition tet quality < 1e-15      : 255
    faces with concavity > 80  degrees                     : 4
    faces with skewness > 4   (internal) or 20  (boundary) : 0
    faces with interpolation weights (0..1)  < 0.02        : 0
    faces with volume ratio of neighbour cells < 0.01      : 0
    faces with face twist < 0.02                           : 63
    faces on cells with determinant < 0.001                : 0

Iteration 5
Displacement scaling for error reduction set to 0.
Moving mesh using displacement scaling : min:0.237305  max:1
Checking faces in error :
    non-orthogonality > 65  degrees                        : 1
    faces with face pyramid volume < 1e-13                 : 10
    faces with face-decomposition tet quality < 1e-15      : 203
    faces with concavity > 80  degrees                     : 2
    faces with skewness > 4   (internal) or 20  (boundary) : 0
    faces with interpolation weights (0..1)  < 0.02        : 0
    faces with volume ratio of neighbour cells < 0.01      : 0
    faces with face twist < 0.02                           : 55
    faces on cells with determinant < 0.001                : 0

Iteration 6
Moving mesh using displacement scaling : min:0  max:1
Checking faces in error :
    non-orthogonality > 65  degrees                        : 0
    faces with face pyramid volume < 1e-13                 : 0
    faces with face-decomposition tet quality < 1e-15      : 2
    faces with concavity > 80  degrees                     : 0
    faces with skewness > 4   (internal) or 20  (boundary) : 0
    faces with interpolation weights (0..1)  < 0.02        : 0
    faces with volume ratio of neighbour cells < 0.01      : 0
    faces with face twist < 0.02                           : 0
    faces on cells with determinant < 0.001                : 0

Iteration 7
Moving mesh using displacement scaling : min:0  max:1
Checking faces in error :
    non-orthogonality > 65  degrees                        : 0
    faces with face pyramid volume < 1e-13                 : 0
    faces with face-decomposition tet quality < 1e-15      : 0
    faces with concavity > 80  degrees                     : 0
    faces with skewness > 4   (internal) or 20  (boundary) : 0
    faces with interpolation weights (0..1)  < 0.02        : 0
    faces with volume ratio of neighbour cells < 0.01      : 0
    faces with face twist < 0.02                           : 0
    faces on cells with determinant < 0.001                : 0
Successfully moved mesh
Moved mesh in = 1.3 s



Morph iteration 7
-----------------
Calculating patchDisplacement as distance to nearest surface point ...
    non-zone points : attract to nearest of all non-zone surfaces
    zone points     : attract to zone surface only

Wanted displacement : average:0.000499766 min:1.9255e-09 max:0.0179259
Calculated surface displacement in = 0.03 s


Detecting near surfaces ...
Overriding nearest with intersection of close gaps at 1486 out of 63913 points.
Overriding displacement on features :
   implicit features    : false
   explicit features    : true
   multi-patch features : false

Detected 1488 baffle edges out of 125828 edges.
Baffle points     : 1708 of which attracted to :
    feature point : 0
    feature edge  : 1705
    rest          : 3

Initially selected 22873 mesh points out of 63913 for reverse attraction.
Selected 42732 mesh points out of 63913 for reverse attraction.
Stringing feature edges : changed 1590 points
Stringing feature edges : changed 177 points
Stringing feature edges : changed 47 points
Stringing feature edges : changed 16 points
Stringing feature edges : changed 5 points
Stringing feature edges : changed 4 points
Stringing feature edges : changed 3 points
Stringing feature edges : changed 3 points
Stringing feature edges : changed 2 points
Stringing feature edges : changed 2 points
Stringing feature edges : changed 1 points
Stringing feature edges : changed 2 points
Stringing feature edges : changed 1 points
Stringing feature edges : changed 2 points
Stringing feature edges : changed 2 points
Stringing feature edges : changed 1 points
Stringing feature edges : changed 1 points
Stringing feature edges : changed 3 points
Stringing feature edges : changed 1 points
Stringing feature edges : changed 2 points
Stringing feature edges : changed 0 points
Attraction:
    linear   : max:(-2.25636e-05 -0.0179245 -0.000223265) avg:(-1.57943e-05 5.45996e-06 -8.51257e-06)
    feature  : max:(-0.0317654 -0.0445366 0.011715) avg:(2.71021e-06 1.40459e-05 -4.91515e-06)
Feature analysis : total master points :61771 of which attracted to :
    feature point   : 1218
    feature edge    : 11234
    nearest surface : 0
    rest            : 49319

--> FOAM Warning : Displacement (-0.000899699 -0.0039074 -0.0016678) at mesh point 11624 coord (0.249943 -0.262885 0.764419) points through the surrounding patch faces
Smoothing displacement ...
Iteration 0
Iteration 10
Iteration 20
Displacement smoothed in = 0.61 s


Moving mesh ...

Iteration 0
Moving mesh using displacement scaling : min:1  max:1
Checking faces in error :
    non-orthogonality > 65  degrees                        : 38
    faces with face pyramid volume < 1e-13                 : 163
    faces with face-decomposition tet quality < 1e-15      : 1051
    faces with concavity > 80  degrees                     : 24
    faces with skewness > 4   (internal) or 20  (boundary) : 0
    faces with interpolation weights (0..1)  < 0.02        : 0
    faces with volume ratio of neighbour cells < 0.01      : 0
    faces with face twist < 0.02                           : 58
    faces on cells with determinant < 0.001                : 0

Iteration 1
Moving mesh using displacement scaling : min:0.75  max:1
Checking faces in error :
    non-orthogonality > 65  degrees                        : 17
    faces with face pyramid volume < 1e-13                 : 106
    faces with face-decomposition tet quality < 1e-15      : 840
    faces with concavity > 80  degrees                     : 19
    faces with skewness > 4   (internal) or 20  (boundary) : 0
    faces with interpolation weights (0..1)  < 0.02        : 0
    faces with volume ratio of neighbour cells < 0.01      : 0
    faces with face twist < 0.02                           : 52
    faces on cells with determinant < 0.001                : 0

Iteration 2
Moving mesh using displacement scaling : min:0.5625  max:1
Checking faces in error :
    non-orthogonality > 65  degrees                        : 6
    faces with face pyramid volume < 1e-13                 : 69
    faces with face-decomposition tet quality < 1e-15      : 696
    faces with concavity > 80  degrees                     : 16
    faces with skewness > 4   (internal) or 20  (boundary) : 0
    faces with interpolation weights (0..1)  < 0.02        : 0
    faces with volume ratio of neighbour cells < 0.01      : 0
    faces with face twist < 0.02                           : 66
    faces on cells with determinant < 0.001                : 0

Iteration 3
Moving mesh using displacement scaling : min:0.421875  max:1
Checking faces in error :
    non-orthogonality > 65  degrees                        : 4
    faces with face pyramid volume < 1e-13                 : 45
    faces with face-decomposition tet quality < 1e-15      : 602
    faces with concavity > 80  degrees                     : 12
    faces with skewness > 4   (internal) or 20  (boundary) : 0
    faces with interpolation weights (0..1)  < 0.02        : 0
    faces with volume ratio of neighbour cells < 0.01      : 0
    faces with face twist < 0.02                           : 68
    faces on cells with determinant < 0.001                : 0

Iteration 4
Moving mesh using displacement scaling : min:0.316406  max:1
Checking faces in error :
    non-orthogonality > 65  degrees                        : 2
    faces with face pyramid volume < 1e-13                 : 33
    faces with face-decomposition tet quality < 1e-15      : 498
    faces with concavity > 80  degrees                     : 11
    faces with skewness > 4   (internal) or 20  (boundary) : 0
    faces with interpolation weights (0..1)  < 0.02        : 0
[...]
    faces with interpolation weights (0..1)  < 0.02        : 0
    faces with volume ratio of neighbour cells < 0.01      : 0
    faces with face twist < 0.02                           : 0
    faces on cells with determinant < 0.001                : 0
displacementMedialAxis : Successfully moved mesh
displacementMedialAxis : Finished moving mesh ...
truncateDisplacement : Unextruded 1 faces due to non-consecutive vertices being extruded.
truncateDisplacement : Unextruded 0 faces due to stringed edges with inconsistent extrusion.
truncateDisplacement : Unextruded 0 faces due to non-consecutive vertices being extruded.
truncateDisplacement : Unextruded 0 faces due to stringed edges with inconsistent extrusion.

Setting up information for layer truncation ...
Detected 0 baffles across faceZones of type internal


Checking mesh with layer ...
Checking faces in error :
    non-orthogonality > 65  degrees                        : 3
    faces with face pyramid volume < 1e-13                 : 0
    faces with face-decomposition tet quality < 1e-15      : 5
    faces with concavity > 80  degrees                     : 0
    faces with skewness > 4   (internal) or 20  (boundary) : 0
    faces with interpolation weights (0..1)  < 0.02        : 0
    faces with volume ratio of neighbour cells < 0.01      : 0
    faces with face twist < 0.02                           : 1
    faces on cells with determinant < 0.001                : 0
Detected 9 illegal faces (concave, zero area or negative cell pyramid volume)
Extruding 27991 out of 49486 faces (56.5635%). Removed extrusion at 9 faces.
Added 28000 out of 49486 cells (56.5817%).


Layer addition iteration 8
--------------------------

Determining displacement for added points according to pointNormal ...
Detected 0 points with point normal pointing through faces.
Reset displacement at 0 points to average of surrounding points.

displacementMedialAxis : Smoothing using Medial Axis ...
displacementMedialAxis : Reducing layer thickness at 542 nodes where thickness to medial axis distance is large 
displacementMedialAxis : Removing isolated regions ...
- if partially extruded faces make angle < 30
- if exclusively surrounded by non-extruded faces
displacementMedialAxis : Number of isolated points extrusion stopped : 4
fieldSmoother : Smoothing field ...
    Iteration 0   residual 0.000104823
displacementMedialAxis : Moving mesh ...
displacementMedialAxis : Iteration 0
Moving mesh using displacement scaling : min:1  max:1
Checking faces in error :
    non-orthogonality > 65  degrees                        : 1
    faces with face pyramid volume < 1e-13                 : 0
    faces with face-decomposition tet quality < 1e-15      : 3
    faces with concavity > 80  degrees                     : 0
    faces with skewness > 4   (internal) or 20  (boundary) : 0
    faces with interpolation weights (0..1)  < 0.02        : 0
    faces with volume ratio of neighbour cells < 0.01      : 0
    faces with face twist < 0.02                           : 0
    faces on cells with determinant < 0.001                : 0
displacementMedialAxis : Iteration 1
Moving mesh using displacement scaling : min:0.75  max:1
Checking faces in error :
    non-orthogonality > 65  degrees                        : 0
    faces with face pyramid volume < 1e-13                 : 0
    faces with face-decomposition tet quality < 1e-15      : 0
    faces with concavity > 80  degrees                     : 0
    faces with skewness > 4   (internal) or 20  (boundary) : 0
    faces with interpolation weights (0..1)  < 0.02        : 0
    faces with volume ratio of neighbour cells < 0.01      : 0
    faces with face twist < 0.02                           : 0
    faces on cells with determinant < 0.001                : 0
displacementMedialAxis : Successfully moved mesh
displacementMedialAxis : Finished moving mesh ...
truncateDisplacement : Unextruded 0 faces due to non-consecutive vertices being extruded.
truncateDisplacement : Unextruded 0 faces due to stringed edges with inconsistent extrusion.

Setting up information for layer truncation ...
Detected 0 baffles across faceZones of type internal


Checking mesh with layer ...
Checking faces in error :
    non-orthogonality > 65  degrees                        : 2
    faces with face pyramid volume < 1e-13                 : 0
    faces with face-decomposition tet quality < 1e-15      : 0
    faces with concavity > 80  degrees                     : 0
    faces with skewness > 4   (internal) or 20  (boundary) : 0
    faces with interpolation weights (0..1)  < 0.02        : 0
    faces with volume ratio of neighbour cells < 0.01      : 0
    faces with face twist < 0.02                           : 2
    faces on cells with determinant < 0.001                : 0
Detected 4 illegal faces (concave, zero area or negative cell pyramid volume)
Extruding 27978 out of 49486 faces (56.5372%). Removed extrusion at 4 faces.
Added 27983 out of 49486 cells (56.5473%).


Layer addition iteration 9
--------------------------

Determining displacement for added points according to pointNormal ...
Detected 0 points with point normal pointing through faces.
Reset displacement at 0 points to average of surrounding points.

displacementMedialAxis : Smoothing using Medial Axis ...
displacementMedialAxis : Reducing layer thickness at 542 nodes where thickness to medial axis distance is large 
displacementMedialAxis : Removing isolated regions ...
- if partially extruded faces make angle < 30
- if exclusively surrounded by non-extruded faces
displacementMedialAxis : Number of isolated points extrusion stopped : 0
fieldSmoother : Smoothing field ...
    Iteration 0   residual 0.000104805
displacementMedialAxis : Moving mesh ...
displacementMedialAxis : Iteration 0
Moving mesh using displacement scaling : min:1  max:1
Checking faces in error :
    non-orthogonality > 65  degrees                        : 1
    faces with face pyramid volume < 1e-13                 : 0
    faces with face-decomposition tet quality < 1e-15      : 3
    faces with concavity > 80  degrees                     : 0
    faces with skewness > 4   (internal) or 20  (boundary) : 0
    faces with interpolation weights (0..1)  < 0.02        : 0
    faces with volume ratio of neighbour cells < 0.01      : 0
    faces with face twist < 0.02                           : 0
    faces on cells with determinant < 0.001                : 0
displacementMedialAxis : Iteration 1
Moving mesh using displacement scaling : min:0.75  max:1
Checking faces in error :
    non-orthogonality > 65  degrees                        : 0
    faces with face pyramid volume < 1e-13                 : 0
    faces with face-decomposition tet quality < 1e-15      : 0
    faces with concavity > 80  degrees                     : 0
    faces with skewness > 4   (internal) or 20  (boundary) : 0
    faces with interpolation weights (0..1)  < 0.02        : 0
    faces with volume ratio of neighbour cells < 0.01      : 0
    faces with face twist < 0.02                           : 0
    faces on cells with determinant < 0.001                : 0
displacementMedialAxis : Successfully moved mesh
displacementMedialAxis : Finished moving mesh ...
truncateDisplacement : Unextruded 0 faces due to non-consecutive vertices being extruded.
truncateDisplacement : Unextruded 0 faces due to stringed edges with inconsistent extrusion.

Setting up information for layer truncation ...
Detected 0 baffles across faceZones of type internal


Checking mesh with layer ...
Checking faces in error :
    non-orthogonality > 65  degrees                        : 0
    faces with face pyramid volume < 1e-13                 : 0
    faces with face-decomposition tet quality < 1e-15      : 1
    faces with concavity > 80  degrees                     : 0
    faces with skewness > 4   (internal) or 20  (boundary) : 0
    faces with interpolation weights (0..1)  < 0.02        : 0
    faces with volume ratio of neighbour cells < 0.01      : 0
    faces with face twist < 0.02                           : 0
    faces on cells with determinant < 0.001                : 0
Detected 1 illegal faces (concave, zero area or negative cell pyramid volume)
Extruding 27975 out of 49486 faces (56.5311%). Removed extrusion at 1 faces.
Added 27978 out of 49486 cells (56.5372%).


Layer addition iteration 10
--------------------------

Determining displacement for added points according to pointNormal ...
Detected 0 points with point normal pointing through faces.
Reset displacement at 0 points to average of surrounding points.

displacementMedialAxis : Smoothing using Medial Axis ...
displacementMedialAxis : Reducing layer thickness at 542 nodes where thickness to medial axis distance is large 
displacementMedialAxis : Removing isolated regions ...
- if partially extruded faces make angle < 30
- if exclusively surrounded by non-extruded faces
displacementMedialAxis : Number of isolated points extrusion stopped : 1
fieldSmoother : Smoothing field ...
    Iteration 0   residual 0.000104783
displacementMedialAxis : Moving mesh ...
displacementMedialAxis : Iteration 0
Moving mesh using displacement scaling : min:1  max:1
Checking faces in error :
    non-orthogonality > 65  degrees                        : 1
    faces with face pyramid volume < 1e-13                 : 0
    faces with face-decomposition tet quality < 1e-15      : 3
    faces with concavity > 80  degrees                     : 0
    faces with skewness > 4   (internal) or 20  (boundary) : 0
    faces with interpolation weights (0..1)  < 0.02        : 0
    faces with volume ratio of neighbour cells < 0.01      : 0
    faces with face twist < 0.02                           : 0
    faces on cells with determinant < 0.001                : 0
displacementMedialAxis : Iteration 1
Moving mesh using displacement scaling : min:0.75  max:1
Checking faces in error :
    non-orthogonality > 65  degrees                        : 0
    faces with face pyramid volume < 1e-13                 : 0
    faces with face-decomposition tet quality < 1e-15      : 0
    faces with concavity > 80  degrees                     : 0
    faces with skewness > 4   (internal) or 20  (boundary) : 0
    faces with interpolation weights (0..1)  < 0.02        : 0
    faces with volume ratio of neighbour cells < 0.01      : 0
    faces with face twist < 0.02                           : 0
    faces on cells with determinant < 0.001                : 0
displacementMedialAxis : Successfully moved mesh
displacementMedialAxis : Finished moving mesh ...
truncateDisplacement : Unextruded 0 faces due to non-consecutive vertices being extruded.
truncateDisplacement : Unextruded 0 faces due to stringed edges with inconsistent extrusion.

Setting up information for layer truncation ...
Detected 0 baffles across faceZones of type internal


Checking mesh with layer ...
Checking faces in error :
    non-orthogonality > 65  degrees                        : 0
    faces with face pyramid volume < 1e-13                 : 0
    faces with face-decomposition tet quality < 1e-15      : 0
    faces with concavity > 80  degrees                     : 0
    faces with skewness > 4   (internal) or 20  (boundary) : 0
    faces with interpolation weights (0..1)  < 0.02        : 0
    faces with volume ratio of neighbour cells < 0.01      : 0
    faces with face twist < 0.02                           : 0
    faces on cells with determinant < 0.001                : 0
Detected 0 illegal faces (concave, zero area or negative cell pyramid volume)
Extruding 27974 out of 49486 faces (56.5291%). Removed extrusion at 0 faces.
Added 27974 out of 49486 cells (56.5291%).
Edge intersection testing:
    Number of edges             : 1108299
    Number of edges to retest   : 0
    Number of intersected edges : 64978
Mesh with layers : cells:353724  faces:1108299  points:406183  unbalance:0.0549581

patch                                            faces        layers        overall thickness
                                                          target   mesh     [m]       [%]
-----                                            -----    -----    ----     ---       ---
lowerWall                                        5349     1        0.993    0.0244    93.2    
motorBike_frt-fairing:001%1                      5350     1        0.358    0.000895  19.6    
motorBike_windshield:002%2                       50       1        0.86     0.00302   64.5    
motorBike_rr-wh-rim:005%5                        121      1        0.562    0.00095   24.8    
motorBike_rr-wh-rim:010%10                       352      1        0.173    0.000222  5.85    
motorBike_fr-wh-rim:011%11                       502      1        0.227    0.000222  7.52    
motorBike_fr-wh-brake-disk:012%12                46       1        0        0         0       
motorBike_frame:016-shadow%13                    101      1        0.0099   1.57e-05  0.446   
motorBike_rear-susp:014%14                       823      1        0.358    0.000427  10.8    
motorBike_rear-susp:014-shadow%15                446      1        0.361    0.000429  11      
motorBike_frame:016%16                           60       1        0.0333   2.3e-05   0.655   
motorBike_rr-wh-rim:005-shadow%17                67       1        0.507    0.000809  21.2    
motorBike_rr-wh-chain-hub:022%22                 131      1        0.00763  6.16e-06  0.131   
motorBike_rearseat%24                            421      1        0.703    0.00219   47.2    
motorBike_frt-fairing%25                         619      1        0.672    0.00169   37.4    
motorBike_windshield%26                          372      1        0.0806   7.47e-05  1.62    
motorBike_headlights%27                          156      1        0.942    0.00337   71.8    
motorBike_driversseat%28                         349      1        0.344    0.000474  11.6    
motorBike_rear-body%29                           2056     1        0.661    0.00173   38      
motorBike_fuel-tank%30                           876      1        0.816    0.00281   61.2    
motorBike_exhaust%31                             2340     1        0.409    0.00166   35.7    
motorBike_rr-wh-rim%32                           1376     1        0.701    0.00173   38.2    
motorBike_fr-mud-guard%33                        621      1        0.24     0.00058   12.6    
motorBike_fr-wh-rim%34                           574      1        0.385    0.000642  15.3    
motorBike_fr-wh-brake-disk%35                    450      1        0.349    0.000338  10.8    
motorBike_fr-brake-caliper%36                    159      1        0        0         0       
motorBike_fr-wh-tyre%37                          1103     1        0.59     0.00184   39.4    
motorBike_hbars%38                               527      1        0        0         0       
motorBike_fr-forks%39                            1096     1        0.44     0.00147   31.8    
motorBike_chain%40                               461      1        0.0564   4.68e-05  1.85    
motorBike_rr-wh-tyre%41                          1847     1        0.793    0.00291   62.1    
motorBike_square-dial%42                         6        1        1        0.0015    31.9    
motorBike_round-dial%43                          15       1        0.733    0.000646  20.8    
motorBike_dial-holder%44                         89       1        0.146    9.61e-05  5.03    
motorBike_rear-susp%45                           1729     1        0.416    0.000594  15.7    
motorBike_rear-brake-lights%46                   54       1        0        0         0       
motorBike_rear-light-bracket%47                  158      1        0.449    0.000653  17.3    
motorBike_frame%48                               2006     1        0.535    0.00108   25.6    
motorBike_rear-mud-guard%49                      652      1        0.268    0.000314  6.95    
motorBike_rear-susp-spring-damp%50               92       1        0        0         0       
motorBike_fairing-inner-plate%51                 439      1        0.615    0.00164   37      
motorBike_clutch-housing%52                      922      1        0.707    0.00151   35      
motorBike_radiator%53                            43       1        0        0         0       
motorBike_water-pipe%54                          100      1        0        0         0       
motorBike_water-pump%55                          73       1        0        0         0       
motorBike_engine%56                              2301     1        0.728    0.00158   36.2    
motorBike_rear-shock-link%57                     18       1        0        0         0       
motorBike_rear-brake-fluid-pot-bracket%58        39       1        0.231    0.000175  7.27    
motorBike_rear-brake-fluid-pot%59                51       1        0        0         0       
motorBike_footpeg%60                             89       1        0        0         0       
motorBike_rr-wh-chain-hub%61                     116      1        0.224    0.000214  6.93    
motorBike_rear-brake-caliper%62                  144      1        0.0833   7.9e-05   2.85    
motorBike_rider-helmet%65                        760      1        0.947    0.00377   81.6    
motorBike_rider-visor%66                         165      1        1        0.00446   95.2    
motorBike_rider-boots%67                         1009     1        0.83     0.00273   60.5    
motorBike_rider-gloves%68                        307      1        0.176    0.00027   5.76    
motorBike_rider-body%69                          4585     1        0.862    0.00328   68      
motorBike_frame:0%70                             37       1        0        0         0       
motorBike_frt-fairing:001-shadow%74              3265     1        0.332    0.000846  18.5    
motorBike_windshield-shadow%75                   267      1        0.0787   8.9e-05   1.9     
motorBike_fr-mud-guard-shadow%81                 367      1        0.243    0.000548  11.8    
motorBike_fr-wh-brake-disk-shadow%83             189      1        0.36     0.00038   12.3    
motorBike_rear-mud-guard-shadow%84               394      1        0.221    0.000239  5.28    
motorBike_rear-susp-spring-damp-shadow%85        57       1        0        0         0       
motorBike_radiator-shadow%86                     30       1        0        0         0       
motorBike_rear-shock-link-shadow%87              16       1        0        0         0       
motorBike_rear-brake-fluid-pot-bracket-shadow%88 28       1        0.321    0.000369  11.4    
motorBike_rr-wh-chain-hub-shadow%89              73       1        0.151    0.000172  4.91    


Doing final balancing
---------------------

Writing 27974 added cells to cellSet addedCells
Writing 0 faces inside added layer to faceSet layerFaces

Writing fields with layer information:
    nSurfaceLayers    : actual number of layers
    thickness         : overall layer thickness
    thicknessFraction : overall layer thickness (fraction of desired thickness)

Layer mesh : cells:353724  faces:1108299  points:406183  unbalance:0.000763307
Cells per refinement level:
    0	1018
    1	1870
    2	5336
    3	9824
    4	134882
    5	23819
    6	176975
Writing mesh to time constant
Wrote mesh in = 0.05 s.
Layers added in = 16.11 s.
Checking final mesh ...
Checking faces in error :
    non-orthogonality > 65  degrees                        : 0
    faces with face pyramid volume < 1e-13                 : 0
    faces with face-decomposition tet quality < 1e-15      : 0
    faces with concavity > 80  degrees                     : 0
    faces with skewness > 4   (internal) or 20  (boundary) : 0
    faces with interpolation weights (0..1)  < 0.02        : 0
    faces with volume ratio of neighbour cells < 0.01      : 0
    faces with face twist < 0.02                           : 0
    faces on cells with determinant < 0.001                : 0
Finished meshing without any errors
Finished meshing in = 51.09 s.
End

Finalising parallel run
