/*---------------------------------------------------------------------------*\
| =========                 |                                                 |
| \\      /  F ield         | OpenFOAM: The Open Source CFD Toolbox           |
|  \\    /   O peration     | Version:  2412                                  |
|   \\  /    A nd           | Website:  www.openfoam.com                      |
|    \\/     M anipulation  |                                                 |
\*---------------------------------------------------------------------------*/
Build  : _45e7c4a0-20241224 OPENFOAM=2412 version=2412
Arch   : "LSB;label=32;scalar=64"
Exec   : simpleFoam -parallel -decomposeParDict system/decomposeParDict.6
Date   : Mar 05 2025
Time   : 16:23:31
Host   : 7e4d9534f50a
PID    : 481
I/O    : uncollated
Case   : /usr/lib/openfoam/openfoam2412/tutorials/incompressible/simpleFoam/motorBike
nProcs : 6
Hosts  :
(
    (7e4d9534f50a 6)
)
Pstream initialized with:
    floatTransfer      : false
    maxCommsSize       : 0
    nProcsSimpleSum    : 0
    nonBlockingExchange: 0 (tuning: 0)
    exchange algorithm : 0
    commsType          : nonBlocking
    polling iterations : 0
trapFpe: Floating point exception trapping enabled (FOAM_SIGFPE).
fileModificationChecking : Monitoring run-time modified files using timeStampMaster (fileModificationSkew 5, maxFileModificationPolls 20)
allowSystemOperations : Allowing user-supplied system call operations

// * * * * * * * * * * * * * * * * * * * * * * * * * * * * * * * * * * * * * //
Create time

Create mesh for time = 0


SIMPLE: no convergence criteria found. Calculations will run for 500 steps.

Reading field p

Reading field U

Reading/calculating face flux field phi

Selecting incompressible transport model Newtonian
Selecting turbulence model type RAS
Selecting RAS turbulence model kOmegaSST
Selecting patchDistMethod meshWave
RAS
{
    RASModel        kOmegaSST;
    turbulence      on;
    printCoeffs     on;
    alphaK1         0.85;
    alphaK2         1;
    alphaOmega1     0.5;
    alphaOmega2     0.856;
    gamma1          0.555556;
    gamma2          0.44;
    beta1           0.075;
    beta2           0.0828;
    betaStar        0.09;
    a1              0.31;
    b1              1;
    c1              10;
    F3              false;
    decayControl    false;
    kInf            0;
    omegaInf        0;
}

No MRF models present

No finite volume options present

Starting time loop

streamLine streamLines:
    Employing velocity field U
    automatic track length specified through number of sub cycles : 5

nearWallFields near: Sampling 1 fields
wallBoundedStreamLine wallBoundedStreamLines:
    Employing velocity field UNear
Sampled surface:
    yNormal -> vtk
        sampledCuttingPlane: yNormal : plane:(0 1 0) (0 0 0) offsets:(0)

forceCoeffs forceCoeffs1:
    rho: rhoInf
    Freestream density (rhoInf) set to 1
    Not including porosity effects
    magUInf: 20
    lRef   : 1.42
    Aref   : 0.75
    rhoInf : 1
    Selecting all coefficients
    - Drag force: Cd
    - Drag force front: Cd(f)
    - Drag force rear: Cd(r)
    - Lift force: Cl
    - Lift force front: Cl(f)
    - Lift force rear: Cl(r)
    - Pitch moment: CmPitch
    - Roll moment: CmRoll
    - Yaw moment: CmYaw
    - Side force: Cs
    - Side force front: Cs(f)
    - Side force rear: Cs(r)


foamReport foamReport1:
    Template: "<system>/myReportTemplate.md"
    Reading substitutions
        Selecting substitution model fileRegEx
        Selecting substitution model dictionaryValue
        Selecting substitution model dictionaryValue
        Selecting substitution model dictionaryValue
    Reading template from "/usr/lib/openfoam/openfoam2412/tutorials/incompressible/simpleFoam/motorBike/system/myReportTemplate.md"

Time = 1

smoothSolver:  Solving for Ux, Initial residual = 0.0873447, Final residual = 0.00816092, No Iterations 7
smoothSolver:  Solving for Uy, Initial residual = 0.584645, Final residual = 0.0445373, No Iterations 7
smoothSolver:  Solving for Uz, Initial residual = 0.400059, Final residual = 0.0377063, No Iterations 5
GAMG:  Solving for p, Initial residual = 1, Final residual = 0.00584777, No Iterations 5
time step continuity errors : sum local = 0.000580248, global = 3.09768e-06, cumulative = 3.09768e-06
smoothSolver:  Solving for omega, Initial residual = 0.00269574, Final residual = 0.00019653, No Iterations 3
bounding omega, min: -4.05422 max: 425800 average: 238.473
smoothSolver:  Solving for k, Initial residual = 1, Final residual = 0.0740123, No Iterations 3
ExecutionTime = 1.01 s  ClockTime = 1 s

forceCoeffs forceCoeffs1 write:
    Coefficient	Total	Pressure	Viscous	Internal
    Cd:	1.34376	1.32125	0.0225129	0
    Cd(f):	0.675779	0.664484	0.011295	0
    Cd(r):	0.667981	0.656763	0.0112179	0
    Cl:	-0.0382376	-0.0391033	0.000865649	0
    Cl(f):	0.553779	0.544377	0.00940166	0
    Cl(r):	-0.592016	-0.58348	-0.00853601	0
    CmPitch:	0.572898	0.563929	0.00896884	0
    CmRoll:	0.00389899	0.00386044	3.85546e-05	0
    CmYaw:	-0.00219171	-0.00211615	-7.55642e-05	0
    Cs:	-0.0228454	-0.0227915	-5.39241e-05	0
    Cs(f):	-0.0136144	-0.0135119	-0.000102526	0
    Cs(r):	-0.00923099	-0.0092796	4.86021e-05	0

    writing force and moment coefficient files.

Time = 2

smoothSolver:  Solving for Ux, Initial residual = 0.0384907, Final residual = 0.00380002, No Iterations 7
smoothSolver:  Solving for Uy, Initial residual = 0.3838, Final residual = 0.035885, No Iterations 7
smoothSolver:  Solving for Uz, Initial residual = 0.164015, Final residual = 0.0132231, No Iterations 7
GAMG:  Solving for p, Initial residual = 0.0754362, Final residual = 0.000347441, No Iterations 5
time step continuity errors : sum local = 0.00036346, global = 1.33646e-05, cumulative = 1.64622e-05
smoothSolver:  Solving for omega, Initial residual = 0.00237069, Final residual = 0.000212832, No Iterations 3
bounding omega, min: -18.921 max: 425268 average: 298.262
smoothSolver:  Solving for k, Initial residual = 0.0832758, Final residual = 0.00661976, No Iterations 3
ExecutionTime = 1.53 s  ClockTime = 2 s

forceCoeffs forceCoeffs1 write:
    Coefficient	Total	Pressure	Viscous	Internal
    Cd:	1.53014	1.51116	0.0189842	0
    Cd(f):	0.772448	0.762926	0.00952252	0
    Cd(r):	0.757695	0.748234	0.00946171	0
    Cl:	-0.054494	-0.0550602	0.000566234	0
    Cl(f):	0.627264	0.619605	0.0076598	0
    Cl(r):	-0.681758	-0.674665	-0.00709356	0
    CmPitch:	0.654511	0.647135	0.00737668	0
    CmRoll:	0.00737651	0.00734611	3.04013e-05	0
    CmYaw:	-0.00352916	-0.00345141	-7.7753e-05	0
    Cs:	-0.0323773	-0.0323853	8.00409e-06	0
    Cs(f):	-0.0197178	-0.0196441	-7.37509e-05	0
    Cs(r):	-0.0126595	-0.0127412	8.1755e-05	0

    writing force and moment coefficient files.

Time = 3

smoothSolver:  Solving for Ux, Initial residual = 0.0202252, Final residual = 0.0016686, No Iterations 8
smoothSolver:  Solving for Uy, Initial residual = 0.296606, Final residual = 0.0284894, No Iterations 7
smoothSolver:  Solving for Uz, Initial residual = 0.110891, Final residual = 0.00968828, No Iterations 7
GAMG:  Solving for p, Initial residual = 0.0518331, Final residual = 0.000506811, No Iterations 4
time step continuity errors : sum local = 0.000731827, global = 6.2529e-06, cumulative = 2.27151e-05
smoothSolver:  Solving for omega, Initial residual = 0.00208142, Final residual = 0.000197921, No Iterations 3
smoothSolver:  Solving for k, Initial residual = 0.0373491, Final residual = 0.00314363, No Iterations 3
ExecutionTime = 2.02 s  ClockTime = 2 s

forceCoeffs forceCoeffs1 write:
    Coefficient	Total	Pressure	Viscous	Internal
    Cd:	1.33306	1.31729	0.0157683	0
    Cd(f):	0.673493	0.665542	0.00795161	0
    Cd(r):	0.659565	0.651748	0.00781666	0
    Cl:	-0.0403182	-0.0407232	0.000405007	0
    Cl(f):	0.550997	0.544726	0.00627066	0
    Cl(r):	-0.591315	-0.585449	-0.00586565	0
    CmPitch:	0.571156	0.565088	0.00606815	0
    CmRoll:	0.00696439	0.00689691	6.74747e-05	0
    CmYaw:	-0.00158408	-0.00151274	-7.13373e-05	0
    Cs:	-0.0296391	-0.0296416	2.53574e-06	0
    Cs(f):	-0.0164036	-0.0163336	-7.00694e-05	0
    Cs(r):	-0.0132355	-0.0133081	7.26051e-05	0

    writing force and moment coefficient files.

Time = 4

smoothSolver:  Solving for Ux, Initial residual = 0.0136778, Final residual = 0.00117163, No Iterations 8
smoothSolver:  Solving for Uy, Initial residual = 0.236684, Final residual = 0.0218657, No Iterations 7
smoothSolver:  Solving for Uz, Initial residual = 0.100015, Final residual = 0.00890317, No Iterations 7
GAMG:  Solving for p, Initial residual = 0.0455524, Final residual = 0.000397485, No Iterations 4
time step continuity errors : sum local = 0.000660174, global = 5.82495e-06, cumulative = 2.85401e-05
smoothSolver:  Solving for omega, Initial residual = 0.00192303, Final residual = 0.000180786, No Iterations 3
smoothSolver:  Solving for k, Initial residual = 0.022459, Final residual = 0.00194732, No Iterations 3
ExecutionTime = 2.5 s  ClockTime = 3 s

forceCoeffs forceCoeffs1 write:
    Coefficient	Total	Pressure	Viscous	Internal
    Cd:	1.08226	1.06842	0.0138368	0
    Cd(f):	0.545267	0.538269	0.00699794	0
    Cd(r):	0.536993	0.530154	0.00683883	0
    Cl:	-0.0283235	-0.0285425	0.000219089	0
    Cl(f):	0.447995	0.442511	0.00548383	0
    Cl(r):	-0.476318	-0.471053	-0.00526474	0
    CmPitch:	0.462156	0.456782	0.00537429	0
    CmRoll:	0.00413696	0.0040574	7.95565e-05	0
    CmYaw:	0.00157307	0.00163776	-6.46833e-05	0
    Cs:	-0.0210325	-0.02104	7.50783e-06	0
    Cs(f):	-0.00894317	-0.00888224	-6.09294e-05	0
    Cs(r):	-0.0120893	-0.0121578	6.84372e-05	0

    writing force and moment coefficient files.

Time = 5

smoothSolver:  Solving for Ux, Initial residual = 0.0106168, Final residual = 0.00088096, No Iterations 8
smoothSolver:  Solving for Uy, Initial residual = 0.204276, Final residual = 0.0182729, No Iterations 7
smoothSolver:  Solving for Uz, Initial residual = 0.1034, Final residual = 0.00922413, No Iterations 7
GAMG:  Solving for p, Initial residual = 0.0410223, Final residual = 0.000341596, No Iterations 4
time step continuity errors : sum local = 0.00062691, global = 1.53363e-05, cumulative = 4.38764e-05
smoothSolver:  Solving for omega, Initial residual = 0.00167503, Final residual = 0.000152682, No Iterations 3
smoothSolver:  Solving for k, Initial residual = 0.0155322, Final residual = 0.00136315, No Iterations 3
ExecutionTime = 2.99 s  ClockTime = 3 s

forceCoeffs forceCoeffs1 write:
    Coefficient	Total	Pressure	Viscous	Internal
    Cd:	0.87852	0.865735	0.0127854	0
    Cd(f):	0.439707	0.433216	0.00649089	0
    Cd(r):	0.438814	0.432519	0.00629451	0
    Cl:	-0.0189157	-0.0190024	8.67214e-05	0
    Cl(f):	0.362458	0.357374	0.00508337	0
    Cl(r):	-0.381373	-0.376377	-0.00499665	0
    CmPitch:	0.371916	0.366876	0.00504001	0
    CmRoll:	0.000446306	0.000348117	9.81894e-05	0
    CmYaw:	0.00440565	0.00445592	-5.0269e-05	0
    Cs:	-0.0118792	-0.0118644	-1.48356e-05	0
    Cs(f):	-0.00153397	-0.00147629	-5.76868e-05	0
    Cs(r):	-0.0103453	-0.0103881	4.28512e-05	0

    writing force and moment coefficient files.

Time = 6

smoothSolver:  Solving for Ux, Initial residual = 0.00850249, Final residual = 0.00068132, No Iterations 8
smoothSolver:  Solving for Uy, Initial residual = 0.18302, Final residual = 0.0162118, No Iterations 7
smoothSolver:  Solving for Uz, Initial residual = 0.109155, Final residual = 0.00979132, No Iterations 7
GAMG:  Solving for p, Initial residual = 0.0367434, Final residual = 0.000289346, No Iterations 4
time step continuity errors : sum local = 0.000574201, global = 2.46254e-05, cumulative = 6.85018e-05
smoothSolver:  Solving for omega, Initial residual = 0.00141585, Final residual = 0.000126986, No Iterations 3
smoothSolver:  Solving for k, Initial residual = 0.0119045, Final residual = 0.00104822, No Iterations 3
ExecutionTime = 3.48 s  ClockTime = 4 s

forceCoeffs forceCoeffs1 write:
    Coefficient	Total	Pressure	Viscous	Internal
    Cd:	0.726654	0.714468	0.0121855	0
    Cd(f):	0.362427	0.356227	0.00619987	0
    Cd(r):	0.364226	0.358241	0.00598562	0
    Cl:	-0.00572409	-0.00571691	-7.18707e-06	0
    Cl(f):	0.30192	0.296979	0.00494139	0
    Cl(r):	-0.307644	-0.302696	-0.00494858	0
    CmPitch:	0.304782	0.299837	0.00494499	0
    CmRoll:	-0.000899501	-0.00100662	0.000107122	0
    CmYaw:	0.00447778	0.00452851	-5.07293e-05	0
    Cs:	-0.00907129	-0.00904508	-2.6205e-05	0
    Cs(f):	-5.7867e-05	5.96479e-06	-6.38318e-05	0
    Cs(r):	-0.00901342	-0.00905105	3.76268e-05	0

    writing force and moment coefficient files.

Time = 7

smoothSolver:  Solving for Ux, Initial residual = 0.00711677, Final residual = 0.000554373, No Iterations 8
smoothSolver:  Solving for Uy, Initial residual = 0.165072, Final residual = 0.0146411, No Iterations 7
smoothSolver:  Solving for Uz, Initial residual = 0.119512, Final residual = 0.0107142, No Iterations 7
GAMG:  Solving for p, Initial residual = 0.0328178, Final residual = 0.000238978, No Iterations 4
time step continuity errors : sum local = 0.000503674, global = 2.86444e-05, cumulative = 9.71462e-05
smoothSolver:  Solving for omega, Initial residual = 0.00122222, Final residual = 0.000106832, No Iterations 3
smoothSolver:  Solving for k, Initial residual = 0.00973045, Final residual = 0.000856752, No Iterations 3
ExecutionTime = 3.97 s  ClockTime = 4 s

forceCoeffs forceCoeffs1 write:
    Coefficient	Total	Pressure	Viscous	Internal
    Cd:	0.6212	0.609282	0.0119187	0
    Cd(f):	0.309911	0.303837	0.00607391	0
    Cd(r):	0.31129	0.305445	0.00584475	0
    Cl:	0.00559631	0.00568587	-8.95584e-05	0
    Cl(f):	0.260989	0.256046	0.0049438	0
    Cl(r):	-0.255393	-0.25036	-0.00503336	0
    CmPitch:	0.258191	0.253203	0.00498858	0
    CmRoll:	-0.000689432	-0.000804014	0.000114581	0
    CmYaw:	0.00260202	0.00265074	-4.87114e-05	0
    Cs:	-0.00987263	-0.0098318	-4.08307e-05	0
    Cs(f):	-0.00233429	-0.00226516	-6.91267e-05	0
    Cs(r):	-0.00753834	-0.00756664	2.8296e-05	0

    writing force and moment coefficient files.

Time = 8

smoothSolver:  Solving for Ux, Initial residual = 0.00611466, Final residual = 0.000480726, No Iterations 8
smoothSolver:  Solving for Uy, Initial residual = 0.14682, Final residual = 0.0129804, No Iterations 7
smoothSolver:  Solving for Uz, Initial residual = 0.13083, Final residual = 0.0117432, No Iterations 7
GAMG:  Solving for p, Initial residual = 0.0299596, Final residual = 0.000190239, No Iterations 4
time step continuity errors : sum local = 0.000419168, global = 2.78331e-05, cumulative = 0.000124979
smoothSolver:  Solving for omega, Initial residual = 0.00107159, Final residual = 9.20571e-05, No Iterations 3
smoothSolver:  Solving for k, Initial residual = 0.00830841, Final residual = 0.0007325, No Iterations 3
ExecutionTime = 4.47 s  ClockTime = 5 s

forceCoeffs forceCoeffs1 write:
    Coefficient	Total	Pressure	Viscous	Internal
    Cd:	0.552633	0.540853	0.0117801	0
    Cd(f):	0.276969	0.270939	0.00603006	0
    Cd(r):	0.275665	0.269915	0.00575004	0
    Cl:	0.0117638	0.0119073	-0.000143523	0
    Cl(f):	0.233582	0.228597	0.00498475	0
    Cl(r):	-0.221818	-0.21669	-0.00512827	0
    CmPitch:	0.2277	0.222643	0.00505651	0
    CmRoll:	0.000652094	0.000512085	0.000140009	0
    CmYaw:	-0.000585576	-0.000529019	-5.65573e-05	0
    Cs:	-0.01357	-0.0134619	-0.000108094	0
    Cs(f):	-0.00737056	-0.00725995	-0.000110604	0
    Cs(r):	-0.00619941	-0.00620192	2.51029e-06	0

    writing force and moment coefficient files.

Time = 9

smoothSolver:  Solving for Ux, Initial residual = 0.00535696, Final residual = 0.000430353, No Iterations 8
smoothSolver:  Solving for Uy, Initial residual = 0.13124, Final residual = 0.0115524, No Iterations 7
smoothSolver:  Solving for Uz, Initial residual = 0.13724, Final residual = 0.0122939, No Iterations 7
GAMG:  Solving for p, Initial residual = 0.0277748, Final residual = 0.000153678, No Iterations 4
time step continuity errors : sum local = 0.00034724, global = 2.15988e-05, cumulative = 0.000146578
smoothSolver:  Solving for omega, Initial residual = 0.000954649, Final residual = 8.05881e-05, No Iterations 3
smoothSolver:  Solving for k, Initial residual = 0.00730305, Final residual = 0.000647251, No Iterations 3
ExecutionTime = 4.97 s  ClockTime = 5 s

forceCoeffs forceCoeffs1 write:
    Coefficient	Total	Pressure	Viscous	Internal
    Cd:	0.509416	0.497688	0.0117275	0
    Cd(f):	0.257571	0.251554	0.00601705	0
    Cd(r):	0.251845	0.246135	0.0057105	0
    Cl:	0.0143664	0.0145455	-0.000179151	0
    Cl(f):	0.215366	0.210329	0.00503737	0
    Cl(r):	-0.201	-0.195784	-0.00521652	0
    CmPitch:	0.208183	0.203056	0.00512694	0
    CmRoll:	0.00286281	0.00270954	0.000153275	0
    CmYaw:	-0.00413806	-0.00406812	-6.99388e-05	0
    Cs:	-0.0190618	-0.01892	-0.000141814	0
    Cs(f):	-0.013669	-0.0135281	-0.000140846	0
    Cs(r):	-0.00539285	-0.00539189	-9.68255e-07	0

    writing force and moment coefficient files.

Time = 10

smoothSolver:  Solving for Ux, Initial residual = 0.00478248, Final residual = 0.000391923, No Iterations 8
smoothSolver:  Solving for Uy, Initial residual = 0.118619, Final residual = 0.0103864, No Iterations 7
smoothSolver:  Solving for Uz, Initial residual = 0.122221, Final residual = 0.010978, No Iterations 7
GAMG:  Solving for p, Initial residual = 0.0261187, Final residual = 0.000131048, No Iterations 4
time step continuity errors : sum local = 0.00029954, global = 1.26898e-05, cumulative = 0.000159268
smoothSolver:  Solving for omega, Initial residual = 0.000861876, Final residual = 7.22099e-05, No Iterations 3
smoothSolver:  Solving for k, Initial residual = 0.00657007, Final residual = 0.000587604, No Iterations 3
ExecutionTime = 5.46 s  ClockTime = 6 s

forceCoeffs forceCoeffs1 write:
    Coefficient	Total	Pressure	Viscous	Internal
    Cd:	0.481409	0.469696	0.0117128	0
    Cd(f):	0.245401	0.239368	0.00603267	0
    Cd(r):	0.236008	0.230328	0.00568017	0
    Cl:	0.0163485	0.0165446	-0.000196039	0
    Cl(f):	0.203079	0.197998	0.00508127	0
    Cl(r):	-0.186731	-0.181454	-0.0052773	0
    CmPitch:	0.194905	0.189726	0.00517929	0
    CmRoll:	0.00469623	0.00451998	0.000176252	0
    CmYaw:	-0.0069664	-0.00687051	-9.58877e-05	0
    Cs:	-0.0231455	-0.022951	-0.000194567	0
    Cs(f):	-0.0185392	-0.018346	-0.000193171	0
    Cs(r):	-0.00460636	-0.00460497	-1.3956e-06	0

    writing force and moment coefficient files.

Time = 11

smoothSolver:  Solving for Ux, Initial residual = 0.00435669, Final residual = 0.000360008, No Iterations 8
smoothSolver:  Solving for Uy, Initial residual = 0.107281, Final residual = 0.00939017, No Iterations 7
smoothSolver:  Solving for Uz, Initial residual = 0.110927, Final residual = 0.00997571, No Iterations 7
GAMG:  Solving for p, Initial residual = 0.0250061, Final residual = 0.000122332, No Iterations 4
time step continuity errors : sum local = 0.000279497, global = 6.37784e-06, cumulative = 0.000165646
smoothSolver:  Solving for omega, Initial residual = 0.000795805, Final residual = 6.56787e-05, No Iterations 3
smoothSolver:  Solving for k, Initial residual = 0.00609444, Final residual = 0.000544766, No Iterations 3
ExecutionTime = 5.95 s  ClockTime = 6 s

forceCoeffs forceCoeffs1 write:
    Coefficient	Total	Pressure	Viscous	Internal
    Cd:	0.462521	0.450781	0.0117403	0
    Cd(f):	0.237405	0.231326	0.00607965	0
    Cd(r):	0.225116	0.219455	0.00566062	0
    Cl:	0.0194006	0.019551	-0.000150473	0
    Cl(f):	0.195319	0.19017	0.00514857	0
    Cl(r):	-0.175918	-0.170619	-0.00529905	0
    CmPitch:	0.185618	0.180395	0.00522381	0
    CmRoll:	0.00614464	0.00593513	0.000209514	0
    CmYaw:	-0.00861947	-0.00849427	-0.000125203	0
    Cs:	-0.025582	-0.0253306	-0.000251435	0
    Cs(f):	-0.0214105	-0.0211596	-0.00025092	0
    Cs(r):	-0.00417153	-0.00417102	-5.1486e-07	0

    writing force and moment coefficient files.

Time = 12

smoothSolver:  Solving for Ux, Initial residual = 0.00405867, Final residual = 0.000334578, No Iterations 8
smoothSolver:  Solving for Uy, Initial residual = 0.097019, Final residual = 0.00854335, No Iterations 7
smoothSolver:  Solving for Uz, Initial residual = 0.105856, Final residual = 0.00958948, No Iterations 7
GAMG:  Solving for p, Initial residual = 0.0240015, Final residual = 0.000120195, No Iterations 4
time step continuity errors : sum local = 0.000271844, global = 4.18257e-06, cumulative = 0.000169828
smoothSolver:  Solving for omega, Initial residual = 0.000742201, Final residual = 6.0498e-05, No Iterations 3
smoothSolver:  Solving for k, Initial residual = 0.00575932, Final residual = 0.000513189, No Iterations 3
ExecutionTime = 6.45 s  ClockTime = 7 s

forceCoeffs forceCoeffs1 write:
    Coefficient	Total	Pressure	Viscous	Internal
    Cd:	0.449844	0.438	0.0118442	0
    Cd(f):	0.231358	0.225191	0.00616725	0
    Cd(r):	0.218486	0.212809	0.0056769	0
    Cl:	0.0247511	0.0248856	-0.000134498	0
    Cl(f):	0.192266	0.187056	0.00520948	0
    Cl(r):	-0.167515	-0.162171	-0.00534398	0
    CmPitch:	0.17989	0.174614	0.00527673	0
    CmRoll:	0.00643602	0.00619085	0.000245176	0
    CmYaw:	-0.00881415	-0.0086585	-0.000155648	0
    Cs:	-0.0252949	-0.0249842	-0.000310661	0
    Cs(f):	-0.0214616	-0.0211506	-0.000310979	0
    Cs(r):	-0.00383329	-0.00383361	3.1797e-07	0

    writing force and moment coefficient files.

Time = 13

smoothSolver:  Solving for Ux, Initial residual = 0.00384514, Final residual = 0.000314427, No Iterations 8
smoothSolver:  Solving for Uy, Initial residual = 0.0881327, Final residual = 0.00790056, No Iterations 7
smoothSolver:  Solving for Uz, Initial residual = 0.102554, Final residual = 0.00939629, No Iterations 7
GAMG:  Solving for p, Initial residual = 0.0233851, Final residual = 0.000121259, No Iterations 4
time step continuity errors : sum local = 0.00027043, global = 5.08335e-06, cumulative = 0.000174912
smoothSolver:  Solving for omega, Initial residual = 0.000692901, Final residual = 5.62406e-05, No Iterations 3
smoothSolver:  Solving for k, Initial residual = 0.00544609, Final residual = 0.000487425, No Iterations 3
ExecutionTime = 6.95 s  ClockTime = 7 s

forceCoeffs forceCoeffs1 write:
    Coefficient	Total	Pressure	Viscous	Internal
    Cd:	0.442121	0.430146	0.0119754	0
    Cd(f):	0.227201	0.220942	0.00625909	0
    Cd(r):	0.21492	0.209204	0.00571635	0
    Cl:	0.0312285	0.0313103	-8.17423e-05	0
    Cl(f):	0.192521	0.187241	0.00527981	0
    Cl(r):	-0.161292	-0.155931	-0.00536155	0
    CmPitch:	0.176907	0.171586	0.00532068	0
    CmRoll:	0.00614047	0.0058691	0.00027137	0
    CmYaw:	-0.00838599	-0.00819959	-0.0001864	0
    Cs:	-0.0240791	-0.0237302	-0.000348855	0
    Cs(f):	-0.0204255	-0.0200647	-0.000360827	0
    Cs(r):	-0.00365353	-0.00366551	1.19727e-05	0

    writing force and moment coefficient files.

Time = 14

smoothSolver:  Solving for Ux, Initial residual = 0.00368457, Final residual = 0.000300522, No Iterations 8
smoothSolver:  Solving for Uy, Initial residual = 0.0811754, Final residual = 0.00741079, No Iterations 7
smoothSolver:  Solving for Uz, Initial residual = 0.0974024, Final residual = 0.00903298, No Iterations 7
GAMG:  Solving for p, Initial residual = 0.0228271, Final residual = 0.000121761, No Iterations 4
time step continuity errors : sum local = 0.000267455, global = 7.98184e-06, cumulative = 0.000182894
smoothSolver:  Solving for omega, Initial residual = 0.000652077, Final residual = 5.26437e-05, No Iterations 3
smoothSolver:  Solving for k, Initial residual = 0.00522189, Final residual = 0.000469375, No Iterations 3
ExecutionTime = 7.44 s  ClockTime = 8 s

forceCoeffs forceCoeffs1 write:
    Coefficient	Total	Pressure	Viscous	Internal
    Cd:	0.438148	0.426039	0.0121093	0
    Cd(f):	0.224795	0.218452	0.00634261	0
    Cd(r):	0.213353	0.207587	0.00576669	0
    Cl:	0.0373288	0.0373809	-5.21187e-05	0
    Cl(f):	0.195129	0.189791	0.00533836	0
    Cl(r):	-0.157801	-0.15241	-0.00539048	0
    CmPitch:	0.176465	0.171101	0.00536442	0
    CmRoll:	0.00572068	0.00543272	0.000287962	0
    CmYaw:	-0.0079483	-0.00773671	-0.000211585	0
    Cs:	-0.0230024	-0.0226342	-0.00036816	0
    Cs(f):	-0.0194495	-0.0190538	-0.000395665	0
    Cs(r):	-0.0035529	-0.00358041	2.7505e-05	0

    writing force and moment coefficient files.

Time = 15

smoothSolver:  Solving for Ux, Initial residual = 0.00353033, Final residual = 0.000289396, No Iterations 8
smoothSolver:  Solving for Uy, Initial residual = 0.0754703, Final residual = 0.00700084, No Iterations 7
smoothSolver:  Solving for Uz, Initial residual = 0.0869763, Final residual = 0.00819283, No Iterations 7
GAMG:  Solving for p, Initial residual = 0.0222621, Final residual = 0.000121478, No Iterations 4
time step continuity errors : sum local = 0.000264037, global = 9.65159e-06, cumulative = 0.000192545
smoothSolver:  Solving for omega, Initial residual = 0.000612091, Final residual = 4.95069e-05, No Iterations 3
smoothSolver:  Solving for k, Initial residual = 0.00501979, Final residual = 0.000455138, No Iterations 3
ExecutionTime = 7.93 s  ClockTime = 8 s

forceCoeffs forceCoeffs1 write:
    Coefficient	Total	Pressure	Viscous	Internal
    Cd:	0.435395	0.423195	0.0121992	0
    Cd(f):	0.223275	0.216883	0.00639203	0
    Cd(r):	0.21212	0.206313	0.00580717	0
    Cl:	0.0438114	0.0438713	-5.99131e-05	0
    Cl(f):	0.198776	0.193408	0.00536758	0
    Cl(r):	-0.154965	-0.149537	-0.00542749	0
    CmPitch:	0.17687	0.171473	0.00539754	0
    CmRoll:	0.00557762	0.0052852	0.000292429	0
    CmYaw:	-0.00772001	-0.00749755	-0.000222457	0
    Cs:	-0.0226324	-0.0222675	-0.000364849	0
    Cs(f):	-0.0190362	-0.0186313	-0.000404882	0
    Cs(r):	-0.00359617	-0.0036362	4.00327e-05	0

    writing force and moment coefficient files.

Time = 16

smoothSolver:  Solving for Ux, Initial residual = 0.00336168, Final residual = 0.000275632, No Iterations 8
smoothSolver:  Solving for Uy, Initial residual = 0.0703135, Final residual = 0.0065729, No Iterations 7
smoothSolver:  Solving for Uz, Initial residual = 0.0784912, Final residual = 0.00739711, No Iterations 7
GAMG:  Solving for p, Initial residual = 0.0215846, Final residual = 0.000116782, No Iterations 4
time step continuity errors : sum local = 0.000252361, global = 9.85637e-06, cumulative = 0.000202402
smoothSolver:  Solving for omega, Initial residual = 0.000577687, Final residual = 4.65255e-05, No Iterations 3
smoothSolver:  Solving for k, Initial residual = 0.00485642, Final residual = 0.000442984, No Iterations 3
ExecutionTime = 8.42 s  ClockTime = 9 s

forceCoeffs forceCoeffs1 write:
    Coefficient	Total	Pressure	Viscous	Internal
    Cd:	0.433036	0.420722	0.0123144	0
    Cd(f):	0.222154	0.21571	0.0064447	0
    Cd(r):	0.210882	0.205012	0.00586966	0
    Cl:	0.0496594	0.0497509	-9.15077e-05	0
    Cl(f):	0.202222	0.196832	0.00538999	0
    Cl(r):	-0.152563	-0.147081	-0.0054815	0
    CmPitch:	0.177392	0.171957	0.00543575	0
    CmRoll:	0.00563612	0.0053486	0.000287518	0
    CmYaw:	-0.00813019	-0.00788956	-0.000240636	0
    Cs:	-0.0231005	-0.0227436	-0.000356852	0
    Cs(f):	-0.0196804	-0.0192614	-0.000419062	0
    Cs(r):	-0.00342005	-0.00348226	6.22106e-05	0

    writing force and moment coefficient files.

Time = 17

smoothSolver:  Solving for Ux, Initial residual = 0.00318527, Final residual = 0.000262072, No Iterations 8
smoothSolver:  Solving for Uy, Initial residual = 0.0655403, Final residual = 0.00615705, No Iterations 7
smoothSolver:  Solving for Uz, Initial residual = 0.0717532, Final residual = 0.00668942, No Iterations 7
GAMG:  Solving for p, Initial residual = 0.0207651, Final residual = 0.000107858, No Iterations 4
time step continuity errors : sum local = 0.000233404, global = 8.66806e-06, cumulative = 0.00021107
smoothSolver:  Solving for omega, Initial residual = 0.000545392, Final residual = 4.37081e-05, No Iterations 3
smoothSolver:  Solving for k, Initial residual = 0.00470899, Final residual = 0.000429987, No Iterations 3
ExecutionTime = 8.93 s  ClockTime = 9 s

forceCoeffs forceCoeffs1 write:
    Coefficient	Total	Pressure	Viscous	Internal
    Cd:	0.431265	0.418861	0.0124042	0
    Cd(f):	0.221415	0.214933	0.00648202	0
    Cd(r):	0.209851	0.203928	0.00592217	0
    Cl:	0.0541678	0.0542751	-0.000107289	0
    Cl(f):	0.204831	0.199427	0.0054043	0
    Cl(r):	-0.150663	-0.145152	-0.00551159	0
    CmPitch:	0.177747	0.172289	0.00545795	0
    CmRoll:	0.0057821	0.00550218	0.000279924	0
    CmYaw:	-0.00900479	-0.00874182	-0.000262971	0
    Cs:	-0.0237647	-0.0234175	-0.000347151	0
    Cs(f):	-0.0208871	-0.0204506	-0.000436546	0
    Cs(r):	-0.00287756	-0.00296696	8.93956e-05	0

    writing force and moment coefficient files.

Time = 18

smoothSolver:  Solving for Ux, Initial residual = 0.0030125, Final residual = 0.000247988, No Iterations 8
smoothSolver:  Solving for Uy, Initial residual = 0.0615039, Final residual = 0.0057312, No Iterations 7
smoothSolver:  Solving for Uz, Initial residual = 0.0660042, Final residual = 0.00610196, No Iterations 7
GAMG:  Solving for p, Initial residual = 0.0198919, Final residual = 9.73802e-05, No Iterations 4
time step continuity errors : sum local = 0.000211087, global = 6.32482e-06, cumulative = 0.000217394
smoothSolver:  Solving for omega, Initial residual = 0.000521494, Final residual = 4.13612e-05, No Iterations 3
smoothSolver:  Solving for k, Initial residual = 0.00458104, Final residual = 0.000417021, No Iterations 3
ExecutionTime = 9.42 s  ClockTime = 10 s

forceCoeffs forceCoeffs1 write:
    Coefficient	Total	Pressure	Viscous	Internal
    Cd:	0.429673	0.417173	0.0125002	0
    Cd(f):	0.220543	0.214021	0.00652155	0
    Cd(r):	0.209131	0.203152	0.00597864	0
    Cl:	0.0566727	0.0567901	-0.00011744	0
    Cl(f):	0.20614	0.200721	0.00541952	0
    Cl(r):	-0.149467	-0.14393	-0.00553696	0
    CmPitch:	0.177804	0.172325	0.00547824	0
    CmRoll:	0.00570599	0.00543453	0.000271451	0
    CmYaw:	-0.00945848	-0.00916514	-0.000293333	0
    Cs:	-0.0236454	-0.0233192	-0.000326208	0
    Cs(f):	-0.0212812	-0.0208248	-0.000456437	0
    Cs(r):	-0.00236424	-0.00249447	0.000130229	0

    writing force and moment coefficient files.

Time = 19

smoothSolver:  Solving for Ux, Initial residual = 0.00286041, Final residual = 0.000234881, No Iterations 8
smoothSolver:  Solving for Uy, Initial residual = 0.0580918, Final residual = 0.00538373, No Iterations 7
smoothSolver:  Solving for Uz, Initial residual = 0.0619746, Final residual = 0.00574302, No Iterations 7
GAMG:  Solving for p, Initial residual = 0.0191987, Final residual = 9.23775e-05, No Iterations 4
time step continuity errors : sum local = 0.000200416, global = 3.26501e-06, cumulative = 0.000220659
smoothSolver:  Solving for omega, Initial residual = 0.000497223, Final residual = 3.92947e-05, No Iterations 3
smoothSolver:  Solving for k, Initial residual = 0.00447819, Final residual = 0.000407317, No Iterations 3
ExecutionTime = 9.92 s  ClockTime = 10 s

forceCoeffs forceCoeffs1 write:
    Coefficient	Total	Pressure	Viscous	Internal
    Cd:	0.427798	0.415235	0.0125628	0
    Cd(f):	0.219174	0.212626	0.00654837	0
    Cd(r):	0.208623	0.202609	0.00601445	0
    Cl:	0.0568638	0.056986	-0.000122164	0
    Cl(f):	0.205891	0.200459	0.00543279	0
    Cl(r):	-0.149027	-0.143473	-0.00555496	0
    CmPitch:	0.177459	0.171966	0.00549388	0
    CmRoll:	0.00527548	0.00500853	0.000266959	0
    CmYaw:	-0.00905014	-0.00873141	-0.00031873	0
    Cs:	-0.0224264	-0.0221027	-0.000323691	0
    Cs(f):	-0.0202633	-0.0197827	-0.000480575	0
    Cs(r):	-0.00216304	-0.00231993	0.000156884	0

    writing force and moment coefficient files.

Time = 20

smoothSolver:  Solving for Ux, Initial residual = 0.00273089, Final residual = 0.000224186, No Iterations 8
smoothSolver:  Solving for Uy, Initial residual = 0.0554535, Final residual = 0.00512732, No Iterations 7
smoothSolver:  Solving for Uz, Initial residual = 0.0595126, Final residual = 0.00553752, No Iterations 7
GAMG:  Solving for p, Initial residual = 0.0186929, Final residual = 9.1249e-05, No Iterations 4
time step continuity errors : sum local = 0.000197793, global = 9.51157e-07, cumulative = 0.000221611
smoothSolver:  Solving for omega, Initial residual = 0.000474044, Final residual = 3.72291e-05, No Iterations 3
smoothSolver:  Solving for k, Initial residual = 0.0043924, Final residual = 0.000396666, No Iterations 3
ExecutionTime = 10.42 s  ClockTime = 11 s

forceCoeffs forceCoeffs1 write:
    Coefficient	Total	Pressure	Viscous	Internal
    Cd:	0.42639	0.413758	0.0126319	0
    Cd(f):	0.217498	0.210921	0.0065771	0
    Cd(r):	0.208892	0.202837	0.00605476	0
    Cl:	0.0556629	0.0557667	-0.000103847	0
    Cl(f):	0.204944	0.199481	0.00546301	0
    Cl(r):	-0.149281	-0.143714	-0.00556686	0
    CmPitch:	0.177113	0.171598	0.00551493	0
    CmRoll:	0.00430294	0.00404177	0.000261173	0
    CmYaw:	-0.00774144	-0.00740016	-0.000341282	0
    Cs:	-0.0193835	-0.019061	-0.000322545	0
    Cs(f):	-0.0174332	-0.0169307	-0.000502554	0
    Cs(r):	-0.00195033	-0.00213034	0.000180009	0

    writing force and moment coefficient files.

Time = 21

smoothSolver:  Solving for Ux, Initial residual = 0.00262079, Final residual = 0.00021744, No Iterations 8
smoothSolver:  Solving for Uy, Initial residual = 0.0531541, Final residual = 0.00495049, No Iterations 7
smoothSolver:  Solving for Uz, Initial residual = 0.0576024, Final residual = 0.00541048, No Iterations 7
GAMG:  Solving for p, Initial residual = 0.0180928, Final residual = 9.09391e-05, No Iterations 4
time step continuity errors : sum local = 0.000196406, global = 1.3253e-06, cumulative = 0.000222936
smoothSolver:  Solving for omega, Initial residual = 0.000450326, Final residual = 3.52906e-05, No Iterations 3
smoothSolver:  Solving for k, Initial residual = 0.00430697, Final residual = 0.000387334, No Iterations 3
ExecutionTime = 10.91 s  ClockTime = 11 s

forceCoeffs forceCoeffs1 write:
    Coefficient	Total	Pressure	Viscous	Internal
    Cd:	0.424946	0.412244	0.0127018	0
    Cd(f):	0.215819	0.209211	0.00660819	0
    Cd(r):	0.209127	0.203033	0.0060936	0
    Cl:	0.0540942	0.0541854	-9.12424e-05	0
    Cl(f):	0.203718	0.198217	0.00550136	0
    Cl(r):	-0.149624	-0.144032	-0.0055926	0
    CmPitch:	0.176671	0.171124	0.00554698	0
    CmRoll:	0.00334591	0.00308861	0.000257296	0
    CmYaw:	-0.00567741	-0.00532059	-0.000356821	0
    Cs:	-0.0155297	-0.0151976	-0.000332122	0
    Cs(f):	-0.0134423	-0.0129194	-0.000522882	0
    Cs(r):	-0.00208744	-0.0022782	0.00019076	0

    writing force and moment coefficient files.

Time = 22

smoothSolver:  Solving for Ux, Initial residual = 0.0025184, Final residual = 0.000212678, No Iterations 8
smoothSolver:  Solving for Uy, Initial residual = 0.0511556, Final residual = 0.00484891, No Iterations 7
smoothSolver:  Solving for Uz, Initial residual = 0.0555517, Final residual = 0.00528364, No Iterations 7
GAMG:  Solving for p, Initial residual = 0.0174523, Final residual = 9.07608e-05, No Iterations 4
time step continuity errors : sum local = 0.000195066, global = 3.71932e-06, cumulative = 0.000226655
smoothSolver:  Solving for omega, Initial residual = 0.000426166, Final residual = 3.33658e-05, No Iterations 3
smoothSolver:  Solving for k, Initial residual = 0.00418411, Final residual = 0.000377065, No Iterations 3
ExecutionTime = 11.42 s  ClockTime = 12 s

forceCoeffs forceCoeffs1 write:
    Coefficient	Total	Pressure	Viscous	Internal
    Cd:	0.423553	0.410755	0.0127983	0
    Cd(f):	0.214285	0.207638	0.00664656	0
    Cd(r):	0.209268	0.203116	0.00615169	0
    Cl:	0.0529648	0.0530373	-7.24615e-05	0
    Cl(f):	0.202283	0.19673	0.00555371	0
    Cl(r):	-0.149319	-0.143692	-0.00562617	0
    CmPitch:	0.175801	0.170211	0.00558994	0
    CmRoll:	0.00250862	0.00226118	0.000247436	0
    CmYaw:	-0.00327208	-0.00291528	-0.000356797	0
    Cs:	-0.0114652	-0.0111424	-0.000322877	0
    Cs(f):	-0.0090047	-0.00848646	-0.000518235	0
    Cs(r):	-0.00246054	-0.0026559	0.000195359	0

    writing force and moment coefficient files.

Time = 23

smoothSolver:  Solving for Ux, Initial residual = 0.00242519, Final residual = 0.000208536, No Iterations 8
smoothSolver:  Solving for Uy, Initial residual = 0.0494242, Final residual = 0.00481145, No Iterations 7
smoothSolver:  Solving for Uz, Initial residual = 0.053432, Final residual = 0.00515636, No Iterations 7
GAMG:  Solving for p, Initial residual = 0.0168252, Final residual = 8.71103e-05, No Iterations 4
time step continuity errors : sum local = 0.000186077, global = 6.33365e-06, cumulative = 0.000232989
smoothSolver:  Solving for omega, Initial residual = 0.000403606, Final residual = 3.16849e-05, No Iterations 3
smoothSolver:  Solving for k, Initial residual = 0.004011, Final residual = 0.000367233, No Iterations 3
ExecutionTime = 11.96 s  ClockTime = 12 s

forceCoeffs forceCoeffs1 write:
    Coefficient	Total	Pressure	Viscous	Internal
    Cd:	0.421923	0.409001	0.0129219	0
    Cd(f):	0.212821	0.206122	0.00669921	0
    Cd(r):	0.209102	0.202879	0.00622269	0
    Cl:	0.0524547	0.0525118	-5.70834e-05	0
    Cl(f):	0.200485	0.194874	0.00561167	0
    Cl(r):	-0.148031	-0.142362	-0.00566875	0
    CmPitch:	0.174258	0.168618	0.00564021	0
    CmRoll:	0.00185982	0.00162156	0.00023826	0
    CmYaw:	-0.00108851	-0.000741528	-0.000346986	0
    Cs:	-0.00818329	-0.00787488	-0.000308406	0
    Cs(f):	-0.00518016	-0.00467897	-0.000501189	0
    Cs(r):	-0.00300313	-0.00319591	0.000192783	0

    writing force and moment coefficient files.

Time = 24

smoothSolver:  Solving for Ux, Initial residual = 0.00234466, Final residual = 0.000203654, No Iterations 8
smoothSolver:  Solving for Uy, Initial residual = 0.048145, Final residual = 0.00476224, No Iterations 7
smoothSolver:  Solving for Uz, Initial residual = 0.0514925, Final residual = 0.0050287, No Iterations 7
GAMG:  Solving for p, Initial residual = 0.0161171, Final residual = 8.11519e-05, No Iterations 4
time step continuity errors : sum local = 0.000172153, global = 7.16992e-06, cumulative = 0.000240159
smoothSolver:  Solving for omega, Initial residual = 0.000382954, Final residual = 3.00748e-05, No Iterations 3
smoothSolver:  Solving for k, Initial residual = 0.00387389, Final residual = 0.000357761, No Iterations 3
ExecutionTime = 12.54 s  ClockTime = 13 s

forceCoeffs forceCoeffs1 write:
    Coefficient	Total	Pressure	Viscous	Internal
    Cd:	0.420385	0.407322	0.0130635	0
    Cd(f):	0.211571	0.204819	0.00675224	0
    Cd(r):	0.208814	0.202503	0.0063113	0
    Cl:	0.0523735	0.0524024	-2.89161e-05	0
    Cl(f):	0.198373	0.192691	0.00568155	0
    Cl(r):	-0.145999	-0.140289	-0.00571047	0
    CmPitch:	0.172186	0.16649	0.00569601	0
    CmRoll:	0.00137863	0.00115816	0.000220471	0
    CmYaw:	0.000521073	0.000849476	-0.000328402	0
    Cs:	-0.00588585	-0.00561876	-0.000267086	0
    Cs(f):	-0.00242185	-0.0019599	-0.000461946	0
    Cs(r):	-0.003464	-0.00365886	0.000194859	0

    writing force and moment coefficient files.

Time = 25

smoothSolver:  Solving for Ux, Initial residual = 0.00226336, Final residual = 0.000196437, No Iterations 8
smoothSolver:  Solving for Uy, Initial residual = 0.0467924, Final residual = 0.00461679, No Iterations 7
smoothSolver:  Solving for Uz, Initial residual = 0.0492283, Final residual = 0.00481822, No Iterations 7
GAMG:  Solving for p, Initial residual = 0.0154689, Final residual = 7.50828e-05, No Iterations 4
time step continuity errors : sum local = 0.000158159, global = 5.50632e-06, cumulative = 0.000245665
smoothSolver:  Solving for omega, Initial residual = 0.000363977, Final residual = 2.88623e-05, No Iterations 3
smoothSolver:  Solving for k, Initial residual = 0.00376115, Final residual = 0.00034923, No Iterations 3
ExecutionTime = 13.08 s  ClockTime = 13 s

forceCoeffs forceCoeffs1 write:
    Coefficient	Total	Pressure	Viscous	Internal
    Cd:	0.419077	0.405862	0.0132153	0
    Cd(f):	0.210659	0.203843	0.00681562	0
    Cd(r):	0.208418	0.202018	0.00639968	0
    Cl:	0.0530771	0.0530748	2.28611e-06	0
    Cl(f):	0.196298	0.190542	0.0057558	0
    Cl(r):	-0.143221	-0.137467	-0.00575351	0
    CmPitch:	0.169759	0.164005	0.00575466	0
    CmRoll:	0.00112059	0.000912616	0.000207969	0
    CmYaw:	0.00145677	0.00177258	-0.000315802	0
    Cs:	-0.00479424	-0.00456628	-0.000227958	0
    Cs(f):	-0.000940346	-0.000510565	-0.00042978	0
    Cs(r):	-0.00385389	-0.00405572	0.000201823	0

    writing force and moment coefficient files.

Time = 26

smoothSolver:  Solving for Ux, Initial residual = 0.00217943, Final residual = 0.000188466, No Iterations 8
smoothSolver:  Solving for Uy, Initial residual = 0.0449203, Final residual = 0.004381, No Iterations 7
smoothSolver:  Solving for Uz, Initial residual = 0.046301, Final residual = 0.00451045, No Iterations 7
GAMG:  Solving for p, Initial residual = 0.0148973, Final residual = 6.94551e-05, No Iterations 4
time step continuity errors : sum local = 0.000145123, global = 2.81159e-06, cumulative = 0.000248477
smoothSolver:  Solving for omega, Initial residual = 0.000347177, Final residual = 2.78304e-05, No Iterations 3
smoothSolver:  Solving for k, Initial residual = 0.00364082, Final residual = 0.000340973, No Iterations 3
ExecutionTime = 13.65 s  ClockTime = 14 s

forceCoeffs forceCoeffs1 write:
    Coefficient	Total	Pressure	Viscous	Internal
    Cd:	0.418061	0.404706	0.0133557	0
    Cd(f):	0.210315	0.203439	0.00687671	0
    Cd(r):	0.207746	0.201267	0.00647903	0
    Cl:	0.0542899	0.0542655	2.44415e-05	0
    Cl(f):	0.194819	0.188991	0.00582836	0
    Cl(r):	-0.140529	-0.134725	-0.00580392	0
    CmPitch:	0.167674	0.161858	0.00581614	0
    CmRoll:	0.00128453	0.00108569	0.000198842	0
    CmYaw:	0.00171096	0.00201971	-0.00030875	0
    Cs:	-0.00536754	-0.00516445	-0.000203085	0
    Cs(f):	-0.000972805	-0.000562513	-0.000410292	0
    Cs(r):	-0.00439473	-0.00460194	0.000207207	0

    writing force and moment coefficient files.

Time = 27

smoothSolver:  Solving for Ux, Initial residual = 0.00207031, Final residual = 0.000178789, No Iterations 8
smoothSolver:  Solving for Uy, Initial residual = 0.0425358, Final residual = 0.00409488, No Iterations 7
smoothSolver:  Solving for Uz, Initial residual = 0.0428505, Final residual = 0.0041261, No Iterations 7
GAMG:  Solving for p, Initial residual = 0.0143662, Final residual = 6.68816e-05, No Iterations 4
time step continuity errors : sum local = 0.000138582, global = 1.39158e-06, cumulative = 0.000249868
smoothSolver:  Solving for omega, Initial residual = 0.000332473, Final residual = 2.67923e-05, No Iterations 3
smoothSolver:  Solving for k, Initial residual = 0.0035477, Final residual = 0.000335169, No Iterations 3
ExecutionTime = 14.18 s  ClockTime = 15 s

forceCoeffs forceCoeffs1 write:
    Coefficient	Total	Pressure	Viscous	Internal
    Cd:	0.417032	0.403554	0.0134779	0
    Cd(f):	0.210072	0.203146	0.00692575	0
    Cd(r):	0.20696	0.200408	0.00655216	0
    Cl:	0.0561625	0.0561278	3.46406e-05	0
    Cl(f):	0.193926	0.18804	0.00588653	0
    Cl(r):	-0.137764	-0.131912	-0.00585189	0
    CmPitch:	0.165845	0.159976	0.00586921	0
    CmRoll:	0.0015556	0.00136881	0.000186792	0
    CmYaw:	0.00139817	0.00170838	-0.000310209	0
    Cs:	-0.00693007	-0.00674635	-0.000183728	0
    Cs(f):	-0.00206687	-0.0016648	-0.000402074	0
    Cs(r):	-0.0048632	-0.00508155	0.000218345	0

    writing force and moment coefficient files.

Time = 28

smoothSolver:  Solving for Ux, Initial residual = 0.00195471, Final residual = 0.000168627, No Iterations 8
smoothSolver:  Solving for Uy, Initial residual = 0.0398338, Final residual = 0.00380222, No Iterations 7
smoothSolver:  Solving for Uz, Initial residual = 0.039408, Final residual = 0.00375184, No Iterations 7
GAMG:  Solving for p, Initial residual = 0.0138335, Final residual = 6.55939e-05, No Iterations 4
time step continuity errors : sum local = 0.000134797, global = 3.50224e-07, cumulative = 0.000250219
smoothSolver:  Solving for omega, Initial residual = 0.000318534, Final residual = 2.5841e-05, No Iterations 3
smoothSolver:  Solving for k, Initial residual = 0.00346595, Final residual = 0.000329376, No Iterations 3
ExecutionTime = 14.74 s  ClockTime = 15 s

forceCoeffs forceCoeffs1 write:
    Coefficient	Total	Pressure	Viscous	Internal
    Cd:	0.415697	0.402114	0.0135829	0
    Cd(f):	0.209523	0.20256	0.00696269	0
    Cd(r):	0.206174	0.199554	0.00662025	0
    Cl:	0.0582481	0.0582047	4.33326e-05	0
    Cl(f):	0.193246	0.18731	0.00593568	0
    Cl(r):	-0.134998	-0.129105	-0.00589235	0
    CmPitch:	0.164122	0.158208	0.00591402	0
    CmRoll:	0.00167445	0.00150323	0.000171222	0
    CmYaw:	0.000896358	0.0012108	-0.000314442	0
    Cs:	-0.00863405	-0.00846607	-0.000167982	0
    Cs(f):	-0.00342067	-0.00302224	-0.000398433	0
    Cs(r):	-0.00521338	-0.00544384	0.000230451	0

    writing force and moment coefficient files.

Time = 29

smoothSolver:  Solving for Ux, Initial residual = 0.00185444, Final residual = 0.000159956, No Iterations 8
smoothSolver:  Solving for Uy, Initial residual = 0.0373137, Final residual = 0.0035327, No Iterations 7
smoothSolver:  Solving for Uz, Initial residual = 0.0364165, Final residual = 0.00345136, No Iterations 7
GAMG:  Solving for p, Initial residual = 0.0133565, Final residual = 6.45349e-05, No Iterations 4
time step continuity errors : sum local = 0.000131591, global = -7.93285e-07, cumulative = 0.000249425
smoothSolver:  Solving for omega, Initial residual = 0.00030594, Final residual = 2.49251e-05, No Iterations 3
smoothSolver:  Solving for k, Initial residual = 0.0033959, Final residual = 0.000323545, No Iterations 3
ExecutionTime = 15.31 s  ClockTime = 16 s

forceCoeffs forceCoeffs1 write:
    Coefficient	Total	Pressure	Viscous	Internal
    Cd:	0.414223	0.400538	0.0136852	0
    Cd(f):	0.208449	0.201451	0.00699781	0
    Cd(r):	0.205774	0.199087	0.0066874	0
    Cl:	0.0603815	0.0603345	4.70127e-05	0
    Cl(f):	0.192739	0.186756	0.00598291	0
    Cl(r):	-0.132357	-0.126422	-0.0059359	0
    CmPitch:	0.162548	0.156589	0.00595941	0
    CmRoll:	0.00133741	0.0011822	0.000155207	0
    CmYaw:	0.000562497	0.000879492	-0.000316996	0
    Cs:	-0.00941802	-0.00926265	-0.000155368	0
    Cs(f):	-0.00414651	-0.00375183	-0.000394679	0
    Cs(r):	-0.00527151	-0.00551082	0.000239312	0

    writing force and moment coefficient files.

Time = 30

smoothSolver:  Solving for Ux, Initial residual = 0.00175909, Final residual = 0.000151198, No Iterations 8
smoothSolver:  Solving for Uy, Initial residual = 0.0349936, Final residual = 0.00329094, No Iterations 7
smoothSolver:  Solving for Uz, Initial residual = 0.0339428, Final residual = 0.0031904, No Iterations 7
GAMG:  Solving for p, Initial residual = 0.0128387, Final residual = 6.34808e-05, No Iterations 4
time step continuity errors : sum local = 0.000128442, global = -1.40704e-06, cumulative = 0.000248018
smoothSolver:  Solving for omega, Initial residual = 0.000294161, Final residual = 2.40289e-05, No Iterations 3
smoothSolver:  Solving for k, Initial residual = 0.00332087, Final residual = 0.000316531, No Iterations 3
ExecutionTime = 15.86 s  ClockTime = 16 s

forceCoeffs forceCoeffs1 write:
    Coefficient	Total	Pressure	Viscous	Internal
    Cd:	0.412728	0.398953	0.0137754	0
    Cd(f):	0.207036	0.200001	0.0070344	0
    Cd(r):	0.205693	0.198952	0.00674097	0
    Cl:	0.0623948	0.0623493	4.54491e-05	0
    Cl(f):	0.192465	0.186442	0.00602296	0
    Cl(r):	-0.13007	-0.124093	-0.00597751	0
    CmPitch:	0.161268	0.155268	0.00600023	0
    CmRoll:	0.000671343	0.000524628	0.000146715	0
    CmYaw:	0.000758004	0.00107369	-0.000315684	0
    Cs:	-0.00905974	-0.00890629	-0.000153449	0
    Cs(f):	-0.00377187	-0.00337946	-0.000392408	0
    Cs(r):	-0.00528788	-0.00552683	0.000238959	0

    writing force and moment coefficient files.

Time = 31

smoothSolver:  Solving for Ux, Initial residual = 0.00166414, Final residual = 0.000142218, No Iterations 8
smoothSolver:  Solving for Uy, Initial residual = 0.0330048, Final residual = 0.00308338, No Iterations 7
smoothSolver:  Solving for Uz, Initial residual = 0.0318404, Final residual = 0.00294388, No Iterations 7
GAMG:  Solving for p, Initial residual = 0.0123719, Final residual = 6.10433e-05, No Iterations 4
time step continuity errors : sum local = 0.000122651, global = -1.30487e-06, cumulative = 0.000246713
smoothSolver:  Solving for omega, Initial residual = 0.000281624, Final residual = 2.30865e-05, No Iterations 3
smoothSolver:  Solving for k, Initial residual = 0.00321832, Final residual = 0.000309071, No Iterations 3
ExecutionTime = 16.41 s  ClockTime = 17 s

forceCoeffs forceCoeffs1 write:
    Coefficient	Total	Pressure	Viscous	Internal
    Cd:	0.411472	0.397617	0.0138556	0
    Cd(f):	0.205493	0.198426	0.00706761	0
    Cd(r):	0.205979	0.199191	0.00678796	0
    Cl:	0.0643717	0.0643236	4.81156e-05	0
    Cl(f):	0.192456	0.186398	0.00605726	0
    Cl(r):	-0.128084	-0.122075	-0.00600915	0
    CmPitch:	0.16027	0.154237	0.0060332	0
    CmRoll:	-0.000242791	-0.000382617	0.000139826	0
    CmYaw:	0.00159706	0.00190561	-0.000308549	0
    Cs:	-0.00754023	-0.00739057	-0.000149662	0
    Cs(f):	-0.00217305	-0.00178967	-0.00038338	0
    Cs(r):	-0.00536718	-0.00560089	0.000233718	0

    writing force and moment coefficient files.

Time = 32

smoothSolver:  Solving for Ux, Initial residual = 0.00157022, Final residual = 0.000133552, No Iterations 8
smoothSolver:  Solving for Uy, Initial residual = 0.0312442, Final residual = 0.00288593, No Iterations 7
smoothSolver:  Solving for Uz, Initial residual = 0.0299672, Final residual = 0.00272401, No Iterations 7
GAMG:  Solving for p, Initial residual = 0.0119371, Final residual = 5.75307e-05, No Iterations 4
time step continuity errors : sum local = 0.000114851, global = -7.54556e-07, cumulative = 0.000245959
smoothSolver:  Solving for omega, Initial residual = 0.000269415, Final residual = 2.21623e-05, No Iterations 3
smoothSolver:  Solving for k, Initial residual = 0.00310422, Final residual = 0.000302257, No Iterations 3
ExecutionTime = 16.96 s  ClockTime = 17 s

forceCoeffs forceCoeffs1 write:
    Coefficient	Total	Pressure	Viscous	Internal
    Cd:	0.410592	0.396658	0.0139341	0
    Cd(f):	0.204094	0.196993	0.00710048	0
    Cd(r):	0.206498	0.199665	0.00683362	0
    Cl:	0.0661384	0.0660878	5.06505e-05	0
    Cl(f):	0.192618	0.186534	0.00608403	0
    Cl(r):	-0.12648	-0.120447	-0.00603338	0
    CmPitch:	0.159549	0.153491	0.00605871	0
    CmRoll:	-0.00120222	-0.00133565	0.000133431	0
    CmYaw:	0.00277839	0.003075	-0.000296607	0
    Cs:	-0.00548962	-0.00535192	-0.000137702	0
    Cs(f):	3.35805e-05	0.000399039	-0.000365458	0
    Cs(r):	-0.0055232	-0.00575095	0.000227756	0

    writing force and moment coefficient files.

Time = 33

smoothSolver:  Solving for Ux, Initial residual = 0.00148287, Final residual = 0.000125342, No Iterations 8
smoothSolver:  Solving for Uy, Initial residual = 0.0299696, Final residual = 0.00275462, No Iterations 7
smoothSolver:  Solving for Uz, Initial residual = 0.028463, Final residual = 0.0025545, No Iterations 7
GAMG:  Solving for p, Initial residual = 0.011542, Final residual = 5.33539e-05, No Iterations 4
time step continuity errors : sum local = 0.000105908, global = 1.52901e-07, cumulative = 0.000246112
smoothSolver:  Solving for omega, Initial residual = 0.000259524, Final residual = 2.12524e-05, No Iterations 3
smoothSolver:  Solving for k, Initial residual = 0.0030022, Final residual = 0.000294185, No Iterations 3
ExecutionTime = 17.47 s  ClockTime = 18 s

forceCoeffs forceCoeffs1 write:
    Coefficient	Total	Pressure	Viscous	Internal
    Cd:	0.410173	0.396168	0.0140049	0
    Cd(f):	0.202917	0.195794	0.00712296	0
    Cd(r):	0.207255	0.200374	0.00688193	0
    Cl:	0.0674299	0.0673782	5.17116e-05	0
    Cl(f):	0.192832	0.186726	0.00610565	0
    Cl(r):	-0.125402	-0.119348	-0.00605393	0
    CmPitch:	0.159117	0.153037	0.00607979	0
    CmRoll:	-0.00216917	-0.00228968	0.000120515	0
    CmYaw:	0.0039519	0.00423313	-0.000281224	0
    Cs:	-0.00328003	-0.00317209	-0.000107937	0
    Cs(f):	0.00231189	0.00264708	-0.000335193	0
    Cs(r):	-0.00559192	-0.00581918	0.000227256	0

    writing force and moment coefficient files.

Time = 34

smoothSolver:  Solving for Ux, Initial residual = 0.00140555, Final residual = 0.000117941, No Iterations 8
smoothSolver:  Solving for Uy, Initial residual = 0.0293215, Final residual = 0.00269448, No Iterations 7
smoothSolver:  Solving for Uz, Initial residual = 0.0272825, Final residual = 0.00241338, No Iterations 7
GAMG:  Solving for p, Initial residual = 0.0111831, Final residual = 4.90384e-05, No Iterations 4
time step continuity errors : sum local = 9.68666e-05, global = 1.12079e-06, cumulative = 0.000247232
smoothSolver:  Solving for omega, Initial residual = 0.000249497, Final residual = 2.02559e-05, No Iterations 3
smoothSolver:  Solving for k, Initial residual = 0.00291497, Final residual = 0.000285207, No Iterations 3
ExecutionTime = 17.97 s  ClockTime = 18 s

forceCoeffs forceCoeffs1 write:
    Coefficient	Total	Pressure	Viscous	Internal
    Cd:	0.410236	0.396171	0.0140648	0
    Cd(f):	0.201924	0.194786	0.00713803	0
    Cd(r):	0.208312	0.201385	0.00692676	0
    Cl:	0.0682408	0.0681895	5.12343e-05	0
    Cl(f):	0.193082	0.186959	0.00612321	0
    Cl(r):	-0.124841	-0.11877	-0.00607197	0
    CmPitch:	0.158962	0.152864	0.00609759	0
    CmRoll:	-0.00319385	-0.00329948	0.000105632	0
    CmYaw:	0.00480473	0.0050671	-0.000262372	0
    Cs:	-0.00117161	-0.00109639	-7.52213e-05	0
    Cs(f):	0.00421892	0.0045189	-0.000299983	0
    Cs(r):	-0.00539053	-0.00561529	0.000224761	0

    writing force and moment coefficient files.

Time = 35

smoothSolver:  Solving for Ux, Initial residual = 0.00134585, Final residual = 0.000110686, No Iterations 8
smoothSolver:  Solving for Uy, Initial residual = 0.028794, Final residual = 0.00263219, No Iterations 7
smoothSolver:  Solving for Uz, Initial residual = 0.0261832, Final residual = 0.0022631, No Iterations 7
GAMG:  Solving for p, Initial residual = 0.0108538, Final residual = 4.62176e-05, No Iterations 4
time step continuity errors : sum local = 9.0894e-05, global = 1.79555e-06, cumulative = 0.000249028
smoothSolver:  Solving for omega, Initial residual = 0.000239113, Final residual = 1.92861e-05, No Iterations 3
smoothSolver:  Solving for k, Initial residual = 0.0028343, Final residual = 0.000276796, No Iterations 3
ExecutionTime = 18.48 s  ClockTime = 19 s

forceCoeffs forceCoeffs1 write:
    Coefficient	Total	Pressure	Viscous	Internal
    Cd:	0.410574	0.396455	0.0141196	0
    Cd(f):	0.200956	0.193813	0.00714388	0
    Cd(r):	0.209618	0.202642	0.00697576	0
    Cl:	0.0688376	0.0687871	5.05085e-05	0
    Cl(f):	0.193319	0.187185	0.00613397	0
    Cl(r):	-0.124482	-0.118398	-0.00608346	0
    CmPitch:	0.1589	0.152792	0.00610872	0
    CmRoll:	-0.00433073	-0.00441479	8.40614e-05	0
    CmYaw:	0.00525841	0.00550561	-0.000247199	0
    Cs:	0.000861665	0.000892193	-3.05277e-05	0
    Cs(f):	0.00568925	0.00595171	-0.000262463	0
    Cs(r):	-0.00482758	-0.00505952	0.000231936	0

    writing force and moment coefficient files.

Time = 36

smoothSolver:  Solving for Ux, Initial residual = 0.00129103, Final residual = 0.000103359, No Iterations 8
smoothSolver:  Solving for Uy, Initial residual = 0.0281922, Final residual = 0.00253255, No Iterations 7
smoothSolver:  Solving for Uz, Initial residual = 0.0249896, Final residual = 0.0021157, No Iterations 7
GAMG:  Solving for p, Initial residual = 0.0105127, Final residual = 4.5162e-05, No Iterations 4
time step continuity errors : sum local = 8.8466e-05, global = 2.11623e-06, cumulative = 0.000251144
smoothSolver:  Solving for omega, Initial residual = 0.000229052, Final residual = 1.83136e-05, No Iterations 3
smoothSolver:  Solving for k, Initial residual = 0.00275234, Final residual = 0.000268346, No Iterations 3
ExecutionTime = 18.97 s  ClockTime = 19 s

forceCoeffs forceCoeffs1 write:
    Coefficient	Total	Pressure	Viscous	Internal
    Cd:	0.410884	0.396715	0.0141694	0
    Cd(f):	0.199936	0.192787	0.00714885	0
    Cd(r):	0.210949	0.203928	0.0070205	0
    Cl:	0.069388	0.0693293	5.87186e-05	0
    Cl(f):	0.193502	0.18736	0.00614249	0
    Cl(r):	-0.124114	-0.11803	-0.00608377	0
    CmPitch:	0.158808	0.152695	0.00611313	0
    CmRoll:	-0.00550661	-0.00557078	6.41744e-05	0
    CmYaw:	0.00543065	0.00566493	-0.000234286	0
    Cs:	0.00278725	0.00277801	9.24411e-06	0
    Cs(f):	0.00682428	0.00705394	-0.000229664	0
    Cs(r):	-0.00403702	-0.00427593	0.000238908	0

    writing force and moment coefficient files.

Time = 37

smoothSolver:  Solving for Ux, Initial residual = 0.00122751, Final residual = 9.67293e-05, No Iterations 8
smoothSolver:  Solving for Uy, Initial residual = 0.0274207, Final residual = 0.00240804, No Iterations 7
smoothSolver:  Solving for Uz, Initial residual = 0.0236686, Final residual = 0.00197702, No Iterations 7
GAMG:  Solving for p, Initial residual = 0.0101631, Final residual = 4.42683e-05, No Iterations 4
time step continuity errors : sum local = 8.64027e-05, global = 1.96646e-06, cumulative = 0.000253111
smoothSolver:  Solving for omega, Initial residual = 0.000218923, Final residual = 1.73874e-05, No Iterations 3
smoothSolver:  Solving for k, Initial residual = 0.00266351, Final residual = 0.000260038, No Iterations 3
ExecutionTime = 19.49 s  ClockTime = 20 s

forceCoeffs forceCoeffs1 write:
    Coefficient	Total	Pressure	Viscous	Internal
    Cd:	0.411007	0.396783	0.0142243	0
    Cd(f):	0.198843	0.191684	0.0071597	0
    Cd(r):	0.212164	0.205099	0.00706461	0
    Cl:	0.0699771	0.069903	7.41049e-05	0
    Cl(f):	0.193611	0.187458	0.00615353	0
    Cl(r):	-0.123634	-0.117555	-0.00607943	0
    CmPitch:	0.158623	0.152506	0.00611648	0
    CmRoll:	-0.00666021	-0.00670776	4.75442e-05	0
    CmYaw:	0.00547171	0.00569813	-0.000226421	0
    Cs:	0.00474493	0.00469985	4.50811e-05	0
    Cs(f):	0.00784418	0.00804806	-0.00020388	0
    Cs(r):	-0.00309925	-0.00334821	0.000248961	0

    writing force and moment coefficient files.

Time = 38

smoothSolver:  Solving for Ux, Initial residual = 0.00116192, Final residual = 9.1058e-05, No Iterations 8
smoothSolver:  Solving for Uy, Initial residual = 0.0263517, Final residual = 0.00228205, No Iterations 7
smoothSolver:  Solving for Uz, Initial residual = 0.0222348, Final residual = 0.00184532, No Iterations 7
GAMG:  Solving for p, Initial residual = 0.00978269, Final residual = 4.27019e-05, No Iterations 4
time step continuity errors : sum local = 8.30571e-05, global = 1.21777e-06, cumulative = 0.000254328
smoothSolver:  Solving for omega, Initial residual = 0.00020876, Final residual = 1.64993e-05, No Iterations 3
smoothSolver:  Solving for k, Initial residual = 0.00256551, Final residual = 0.000251995, No Iterations 3
ExecutionTime = 19.99 s  ClockTime = 20 s

forceCoeffs forceCoeffs1 write:
    Coefficient	Total	Pressure	Viscous	Internal
    Cd:	0.410752	0.396474	0.0142787	0
    Cd(f):	0.197646	0.190469	0.00717694	0
    Cd(r):	0.213106	0.206005	0.00710174	0
    Cl:	0.0702222	0.0701258	9.6398e-05	0
    Cl(f):	0.193513	0.187346	0.00616712	0
    Cl(r):	-0.123291	-0.11722	-0.00607072	0
    CmPitch:	0.158402	0.152283	0.00611892	0
    CmRoll:	-0.00773011	-0.0077677	3.75965e-05	0
    CmYaw:	0.00552094	0.00573896	-0.000218015	0
    Cs:	0.00677022	0.00670121	6.90054e-05	0
    Cs(f):	0.00890605	0.00908956	-0.000183512	0
    Cs(r):	-0.00213583	-0.00238835	0.000252517	0

    writing force and moment coefficient files.

Time = 39

smoothSolver:  Solving for Ux, Initial residual = 0.0010956, Final residual = 8.58814e-05, No Iterations 8
smoothSolver:  Solving for Uy, Initial residual = 0.0252261, Final residual = 0.0021632, No Iterations 7
smoothSolver:  Solving for Uz, Initial residual = 0.0208629, Final residual = 0.00172382, No Iterations 7
GAMG:  Solving for p, Initial residual = 0.00937595, Final residual = 4.13694e-05, No Iterations 4
time step continuity errors : sum local = 8.02042e-05, global = 7.49205e-07, cumulative = 0.000255078
smoothSolver:  Solving for omega, Initial residual = 0.000198353, Final residual = 1.56132e-05, No Iterations 3
smoothSolver:  Solving for k, Initial residual = 0.00246383, Final residual = 0.000243599, No Iterations 3
ExecutionTime = 20.51 s  ClockTime = 21 s

forceCoeffs forceCoeffs1 write:
    Coefficient	Total	Pressure	Viscous	Internal
    Cd:	0.410189	0.395845	0.0143447	0
    Cd(f):	0.196469	0.189264	0.00720538	0
    Cd(r):	0.21372	0.206581	0.00713936	0
    Cl:	0.0699492	0.0698374	0.000111774	0
    Cl(f):	0.193165	0.18698	0.00618423	0
    Cl(r):	-0.123215	-0.117143	-0.00607245	0
    CmPitch:	0.15819	0.152062	0.00612834	0
    CmRoll:	-0.00862537	-0.00865838	3.30066e-05	0
    CmYaw:	0.00559837	0.00581133	-0.000212962	0
    Cs:	0.00869164	0.00860725	8.43903e-05	0
    Cs(f):	0.00994419	0.010115	-0.000170767	0
    Cs(r):	-0.00125255	-0.00150771	0.000255157	0

    writing force and moment coefficient files.

Time = 40

smoothSolver:  Solving for Ux, Initial residual = 0.00103276, Final residual = 8.12107e-05, No Iterations 8
smoothSolver:  Solving for Uy, Initial residual = 0.0240421, Final residual = 0.00204256, No Iterations 7
smoothSolver:  Solving for Uz, Initial residual = 0.0195396, Final residual = 0.00160866, No Iterations 7
GAMG:  Solving for p, Initial residual = 0.00896979, Final residual = 4.07362e-05, No Iterations 4
time step continuity errors : sum local = 7.87659e-05, global = 1.03552e-06, cumulative = 0.000256113
smoothSolver:  Solving for omega, Initial residual = 0.000187061, Final residual = 1.47214e-05, No Iterations 3
bounding omega, min: -140.896 max: 423843 average: 611.641
smoothSolver:  Solving for k, Initial residual = 0.00236541, Final residual = 0.000235576, No Iterations 3
ExecutionTime = 21.05 s  ClockTime = 21 s

forceCoeffs forceCoeffs1 write:
    Coefficient	Total	Pressure	Viscous	Internal
    Cd:	0.409354	0.394962	0.0143927	0
    Cd(f):	0.195486	0.188255	0.00723074	0
    Cd(r):	0.213869	0.206707	0.007162	0
    Cl:	0.0694156	0.069296	0.00011959	0
    Cl(f):	0.192736	0.186544	0.00619142	0
    Cl(r):	-0.12332	-0.117248	-0.00607183	0
    CmPitch:	0.158028	0.151896	0.00613162	0
    CmRoll:	-0.00919153	-0.0092259	3.43677e-05	0
    CmYaw:	0.00568449	0.00589553	-0.000211038	0
    Cs:	0.0100551	0.00996595	8.91939e-05	0
    Cs(f):	0.0107121	0.0108785	-0.000166441	0
    Cs(r):	-0.000656919	-0.000912554	0.000255635	0

    writing force and moment coefficient files.

Time = 41

smoothSolver:  Solving for Ux, Initial residual = 0.000979571, Final residual = 7.68847e-05, No Iterations 8
smoothSolver:  Solving for Uy, Initial residual = 0.0228757, Final residual = 0.00192413, No Iterations 7
smoothSolver:  Solving for Uz, Initial residual = 0.0184701, Final residual = 0.00148928, No Iterations 7
GAMG:  Solving for p, Initial residual = 0.00861647, Final residual = 4.04032e-05, No Iterations 4
time step continuity errors : sum local = 7.79599e-05, global = 1.21122e-06, cumulative = 0.000257324
smoothSolver:  Solving for omega, Initial residual = 0.000176502, Final residual = 1.3863e-05, No Iterations 3
smoothSolver:  Solving for k, Initial residual = 0.00226979, Final residual = 0.000104811, No Iterations 4
ExecutionTime = 21.57 s  ClockTime = 22 s

forceCoeffs forceCoeffs1 write:
    Coefficient	Total	Pressure	Viscous	Internal
    Cd:	0.408558	0.394111	0.0144478	0
    Cd(f):	0.194864	0.187595	0.00726895	0
    Cd(r):	0.213694	0.206515	0.0071789	0
    Cl:	0.0688537	0.068734	0.000119739	0
    Cl(f):	0.192234	0.186031	0.00620331	0
    Cl(r):	-0.12338	-0.117297	-0.00608357	0
    CmPitch:	0.157807	0.151664	0.00614344	0
    CmRoll:	-0.00941502	-0.00946004	4.50212e-05	0
    CmYaw:	0.00571884	0.00593182	-0.000212979	0
    Cs:	0.0107578	0.0106833	7.44962e-05	0
    Cs(f):	0.0110977	0.0112735	-0.000175731	0
    Cs(r):	-0.00033997	-0.000590196	0.000250227	0

    writing force and moment coefficient files.

Time = 42

smoothSolver:  Solving for Ux, Initial residual = 0.00093007, Final residual = 7.27168e-05, No Iterations 8
smoothSolver:  Solving for Uy, Initial residual = 0.0216643, Final residual = 0.00180341, No Iterations 7
smoothSolver:  Solving for Uz, Initial residual = 0.0176009, Final residual = 0.00139431, No Iterations 7
GAMG:  Solving for p, Initial residual = 0.00833229, Final residual = 3.96787e-05, No Iterations 4
time step continuity errors : sum local = 7.64615e-05, global = 5.92364e-07, cumulative = 0.000257917
smoothSolver:  Solving for omega, Initial residual = 0.00016638, Final residual = 1.30742e-05, No Iterations 3
smoothSolver:  Solving for k, Initial residual = 0.00217546, Final residual = 0.000102016, No Iterations 4
ExecutionTime = 22.14 s  ClockTime = 23 s

forceCoeffs forceCoeffs1 write:
    Coefficient	Total	Pressure	Viscous	Internal
    Cd:	0.407745	0.393248	0.0144974	0
    Cd(f):	0.19449	0.187184	0.00730642	0
    Cd(r):	0.213255	0.206064	0.007191	0
    Cl:	0.0686849	0.0685623	0.00012262	0
    Cl(f):	0.19189	0.185677	0.00621268	0
    Cl(r):	-0.123205	-0.117115	-0.00609006	0
    CmPitch:	0.157547	0.151396	0.00615137	0
    CmRoll:	-0.00938229	-0.00944	5.77099e-05	0
    CmYaw:	0.00572483	0.00594055	-0.000215719	0
    Cs:	0.01086	0.0108041	5.58975e-05	0
    Cs(f):	0.0111548	0.0113426	-0.00018777	0
    Cs(r):	-0.000294838	-0.000538506	0.000243668	0

    writing force and moment coefficient files.

Time = 43

smoothSolver:  Solving for Ux, Initial residual = 0.000880729, Final residual = 6.80768e-05, No Iterations 8
smoothSolver:  Solving for Uy, Initial residual = 0.0204736, Final residual = 0.00168101, No Iterations 7
smoothSolver:  Solving for Uz, Initial residual = 0.016802, Final residual = 0.0013183, No Iterations 7
GAMG:  Solving for p, Initial residual = 0.00803856, Final residual = 3.83853e-05, No Iterations 4
time step continuity errors : sum local = 7.38874e-05, global = -5.92631e-07, cumulative = 0.000257324
smoothSolver:  Solving for omega, Initial residual = 0.000157661, Final residual = 1.23584e-05, No Iterations 3
smoothSolver:  Solving for k, Initial residual = 0.002088, Final residual = 9.88152e-05, No Iterations 4
ExecutionTime = 22.71 s  ClockTime = 23 s

forceCoeffs forceCoeffs1 write:
    Coefficient	Total	Pressure	Viscous	Internal
    Cd:	0.407166	0.392625	0.0145411	0
    Cd(f):	0.194363	0.187024	0.00733899	0
    Cd(r):	0.212803	0.205601	0.00720213	0
    Cl:	0.0688458	0.0687255	0.000120266	0
    Cl(f):	0.191722	0.185504	0.00621832	0
    Cl(r):	-0.122876	-0.116778	-0.00609805	0
    CmPitch:	0.157299	0.151141	0.00615818	0
    CmRoll:	-0.00922036	-0.00928879	6.84344e-05	0
    CmYaw:	0.00572419	0.00594427	-0.000220077	0
    Cs:	0.0106588	0.0106196	3.92442e-05	0
    Cs(f):	0.0110536	0.0112541	-0.000200455	0
    Cs(r):	-0.000394765	-0.000634465	0.000239699	0

    writing force and moment coefficient files.

Time = 44

smoothSolver:  Solving for Ux, Initial residual = 0.000831517, Final residual = 6.35299e-05, No Iterations 8
smoothSolver:  Solving for Uy, Initial residual = 0.0193366, Final residual = 0.00157944, No Iterations 7
smoothSolver:  Solving for Uz, Initial residual = 0.0161019, Final residual = 0.00125634, No Iterations 7
GAMG:  Solving for p, Initial residual = 0.00770761, Final residual = 3.66878e-05, No Iterations 4
time step continuity errors : sum local = 7.0553e-05, global = -1.43827e-06, cumulative = 0.000255886
smoothSolver:  Solving for omega, Initial residual = 0.000149486, Final residual = 1.17309e-05, No Iterations 3
smoothSolver:  Solving for k, Initial residual = 0.00200324, Final residual = 9.54023e-05, No Iterations 4
ExecutionTime = 23.24 s  ClockTime = 24 s

forceCoeffs forceCoeffs1 write:
    Coefficient	Total	Pressure	Viscous	Internal
    Cd:	0.406678	0.392101	0.0145768	0
    Cd(f):	0.194338	0.186974	0.00736394	0
    Cd(r):	0.21234	0.205127	0.00721286	0
    Cl:	0.0691491	0.0690301	0.000118979	0
    Cl(f):	0.191677	0.185455	0.0062222	0
    Cl(r):	-0.122528	-0.116425	-0.00610322	0
    CmPitch:	0.157103	0.15094	0.00616271	0
    CmRoll:	-0.00900071	-0.00907625	7.55402e-05	0
    CmYaw:	0.00578632	0.0060085	-0.000222181	0
    Cs:	0.0103009	0.0102705	3.03952e-05	0
    Cs(f):	0.0109368	0.0111438	-0.000206983	0
    Cs(r):	-0.000635862	-0.000873241	0.000237379	0

    writing force and moment coefficient files.

Time = 45

smoothSolver:  Solving for Ux, Initial residual = 0.000789667, Final residual = 6.02359e-05, No Iterations 8
smoothSolver:  Solving for Uy, Initial residual = 0.0182233, Final residual = 0.00149573, No Iterations 7
smoothSolver:  Solving for Uz, Initial residual = 0.0153399, Final residual = 0.00119422, No Iterations 7
GAMG:  Solving for p, Initial residual = 0.00739032, Final residual = 3.47132e-05, No Iterations 4
time step continuity errors : sum local = 6.67113e-05, global = -1.60104e-06, cumulative = 0.000254285
smoothSolver:  Solving for omega, Initial residual = 0.000142202, Final residual = 1.11825e-05, No Iterations 3
smoothSolver:  Solving for k, Initial residual = 0.00193195, Final residual = 9.21367e-05, No Iterations 4
ExecutionTime = 23.77 s  ClockTime = 24 s

forceCoeffs forceCoeffs1 write:
    Coefficient	Total	Pressure	Viscous	Internal
    Cd:	0.406363	0.391755	0.014608	0
    Cd(f):	0.194385	0.187001	0.00738412	0
    Cd(r):	0.211978	0.204754	0.00722389	0
    Cl:	0.0693719	0.0692515	0.00012045	0
    Cl(f):	0.191606	0.18538	0.00622693	0
    Cl(r):	-0.122235	-0.116128	-0.00610648	0
    CmPitch:	0.156921	0.150754	0.00616671	0
    CmRoll:	-0.00879655	-0.00887666	8.01108e-05	0
    CmYaw:	0.00593906	0.00616363	-0.000224573	0
    Cs:	0.00995305	0.00992791	2.51348e-05	0
    Cs(f):	0.0109156	0.0111276	-0.000212005	0
    Cs(r):	-0.000962534	-0.00119967	0.00023714	0

    writing force and moment coefficient files.

Time = 46

smoothSolver:  Solving for Ux, Initial residual = 0.000754355, Final residual = 5.80257e-05, No Iterations 8
smoothSolver:  Solving for Uy, Initial residual = 0.0172452, Final residual = 0.00142735, No Iterations 7
smoothSolver:  Solving for Uz, Initial residual = 0.014603, Final residual = 0.00113971, No Iterations 7
GAMG:  Solving for p, Initial residual = 0.00708255, Final residual = 3.29167e-05, No Iterations 4
time step continuity errors : sum local = 6.32208e-05, global = -1.52856e-06, cumulative = 0.000252756
smoothSolver:  Solving for omega, Initial residual = 0.000136361, Final residual = 1.07128e-05, No Iterations 3
smoothSolver:  Solving for k, Initial residual = 0.0018753, Final residual = 8.90926e-05, No Iterations 4
ExecutionTime = 24.28 s  ClockTime = 25 s

forceCoeffs forceCoeffs1 write:
    Coefficient	Total	Pressure	Viscous	Internal
    Cd:	0.406158	0.391529	0.0146287	0
    Cd(f):	0.194451	0.187052	0.00739818	0
    Cd(r):	0.211707	0.204477	0.00723052	0
    Cl:	0.0695779	0.0694566	0.000121274	0
    Cl(f):	0.191601	0.185373	0.00622763	0
    Cl(r):	-0.122023	-0.115917	-0.00610636	0
    CmPitch:	0.156812	0.150645	0.006167	0
    CmRoll:	-0.00862839	-0.00871222	8.38264e-05	0
    CmYaw:	0.00623897	0.00645916	-0.000220187	0
    Cs:	0.00959138	0.00957225	1.91222e-05	0
    Cs(f):	0.0110347	0.0112453	-0.000210626	0
    Cs(r):	-0.00144329	-0.00167303	0.000229748	0

    writing force and moment coefficient files.

Time = 47

smoothSolver:  Solving for Ux, Initial residual = 0.000727324, Final residual = 5.64086e-05, No Iterations 8
smoothSolver:  Solving for Uy, Initial residual = 0.0165515, Final residual = 0.00137788, No Iterations 7
smoothSolver:  Solving for Uz, Initial residual = 0.0140885, Final residual = 0.00110233, No Iterations 7
GAMG:  Solving for p, Initial residual = 0.00679069, Final residual = 3.16195e-05, No Iterations 4
time step continuity errors : sum local = 6.06769e-05, global = -1.7188e-06, cumulative = 0.000251038
smoothSolver:  Solving for omega, Initial residual = 0.00013137, Final residual = 1.02965e-05, No Iterations 3
smoothSolver:  Solving for k, Initial residual = 0.001828, Final residual = 8.64702e-05, No Iterations 4
ExecutionTime = 24.81 s  ClockTime = 25 s

forceCoeffs forceCoeffs1 write:
    Coefficient	Total	Pressure	Viscous	Internal
    Cd:	0.406224	0.391575	0.0146482	0
    Cd(f):	0.194639	0.187231	0.00740771	0
    Cd(r):	0.211585	0.204344	0.00724046	0
    Cl:	0.0697043	0.0695813	0.000122999	0
    Cl(f):	0.191566	0.185339	0.00622758	0
    Cl(r):	-0.121862	-0.115757	-0.00610458	0
    CmPitch:	0.156714	0.150548	0.00616608	0
    CmRoll:	-0.00847296	-0.00855658	8.36225e-05	0
    CmYaw:	0.0066839	0.00690375	-0.000219846	0
    Cs:	0.00920887	0.00918881	2.00623e-05	0
    Cs(f):	0.0112883	0.0114982	-0.000209815	0
    Cs(r):	-0.00207947	-0.00230934	0.000229877	0

    writing force and moment coefficient files.

Time = 48

smoothSolver:  Solving for Ux, Initial residual = 0.000706021, Final residual = 5.50925e-05, No Iterations 8
smoothSolver:  Solving for Uy, Initial residual = 0.0160536, Final residual = 0.00133977, No Iterations 7
smoothSolver:  Solving for Uz, Initial residual = 0.0136771, Final residual = 0.00107568, No Iterations 7
GAMG:  Solving for p, Initial residual = 0.00653611, Final residual = 3.1082e-05, No Iterations 4
time step continuity errors : sum local = 5.95881e-05, global = -2.00888e-06, cumulative = 0.000249029
smoothSolver:  Solving for omega, Initial residual = 0.00012639, Final residual = 9.91514e-06, No Iterations 3
smoothSolver:  Solving for k, Initial residual = 0.00178359, Final residual = 8.39575e-05, No Iterations 4
ExecutionTime = 25.31 s  ClockTime = 26 s

forceCoeffs forceCoeffs1 write:
    Coefficient	Total	Pressure	Viscous	Internal
    Cd:	0.406426	0.391766	0.0146601	0
    Cd(f):	0.194887	0.18747	0.00741673	0
    Cd(r):	0.21154	0.204296	0.00724338	0
    Cl:	0.0699095	0.0697771	0.00013238	0
    Cl(f):	0.191588	0.185358	0.00622937	0
    Cl(r):	-0.121678	-0.115581	-0.00609699	0
    CmPitch:	0.156633	0.15047	0.00616318	0
    CmRoll:	-0.00832658	-0.00841326	8.6675e-05	0
    CmYaw:	0.00724494	0.00745805	-0.000213107	0
    Cs:	0.00879041	0.00877811	1.22993e-05	0
    Cs(f):	0.0116402	0.0118471	-0.000206957	0
    Cs(r):	-0.00284974	-0.003069	0.000219256	0

    writing force and moment coefficient files.

Time = 49

smoothSolver:  Solving for Ux, Initial residual = 0.000688059, Final residual = 5.39387e-05, No Iterations 8
smoothSolver:  Solving for Uy, Initial residual = 0.015617, Final residual = 0.00130067, No Iterations 7
smoothSolver:  Solving for Uz, Initial residual = 0.0133147, Final residual = 0.00105901, No Iterations 7
GAMG:  Solving for p, Initial residual = 0.00630471, Final residual = 3.05813e-05, No Iterations 4
time step continuity errors : sum local = 5.85566e-05, global = -2.05875e-06, cumulative = 0.00024697
smoothSolver:  Solving for omega, Initial residual = 0.00012172, Final residual = 9.52651e-06, No Iterations 3
smoothSolver:  Solving for k, Initial residual = 0.00173739, Final residual = 8.1289e-05, No Iterations 4
ExecutionTime = 25.83 s  ClockTime = 26 s

forceCoeffs forceCoeffs1 write:
    Coefficient	Total	Pressure	Viscous	Internal
    Cd:	0.40684	0.392161	0.0146788	0
    Cd(f):	0.195351	0.187923	0.00742798	0
    Cd(r):	0.211489	0.204238	0.00725086	0
    Cl:	0.0701427	0.0700046	0.000138101	0
    Cl(f):	0.191597	0.185363	0.00623371	0
    Cl(r):	-0.121454	-0.115359	-0.00609561	0
    CmPitch:	0.156526	0.150361	0.00616466	0
    CmRoll:	-0.00806885	-0.00815741	8.85622e-05	0
    CmYaw:	0.00786107	0.0080692	-0.00020813	0
    Cs:	0.00816098	0.00815207	8.9097e-06	0
    Cs(f):	0.0119416	0.0121452	-0.000203675	0
    Cs(r):	-0.00378058	-0.00399317	0.000212585	0

    writing force and moment coefficient files.

Time = 50

smoothSolver:  Solving for Ux, Initial residual = 0.000671507, Final residual = 5.21709e-05, No Iterations 8
smoothSolver:  Solving for Uy, Initial residual = 0.0152102, Final residual = 0.00126217, No Iterations 7
smoothSolver:  Solving for Uz, Initial residual = 0.0129273, Final residual = 0.0010413, No Iterations 7
GAMG:  Solving for p, Initial residual = 0.0061036, Final residual = 2.98736e-05, No Iterations 4
time step continuity errors : sum local = 5.71375e-05, global = -1.71079e-06, cumulative = 0.000245259
smoothSolver:  Solving for omega, Initial residual = 0.000117329, Final residual = 9.15464e-06, No Iterations 3
smoothSolver:  Solving for k, Initial residual = 0.00168546, Final residual = 7.84858e-05, No Iterations 4
ExecutionTime = 26.36 s  ClockTime = 27 s

forceCoeffs forceCoeffs1 write:
    Coefficient	Total	Pressure	Viscous	Internal
    Cd:	0.407348	0.392661	0.0146864	0
    Cd(f):	0.196013	0.188578	0.00743589	0
    Cd(r):	0.211334	0.204084	0.00725054	0
    Cl:	0.0704329	0.0702857	0.000147139	0
    Cl(f):	0.191626	0.185389	0.00623677	0
    Cl(r):	-0.121193	-0.115103	-0.00608963	0
    CmPitch:	0.156409	0.150246	0.0061632	0
    CmRoll:	-0.00766049	-0.00775317	9.26759e-05	0
    CmYaw:	0.00844323	0.0086439	-0.000200666	0
    Cs:	0.00718116	0.00718092	2.3931e-07	0
    Cs(f):	0.0120338	0.0122344	-0.000200547	0
    Cs(r):	-0.00485265	-0.00505344	0.000200786	0

    writing force and moment coefficient files.

Time = 51

smoothSolver:  Solving for Ux, Initial residual = 0.000653816, Final residual = 5.00475e-05, No Iterations 8
smoothSolver:  Solving for Uy, Initial residual = 0.0147509, Final residual = 0.00121349, No Iterations 7
smoothSolver:  Solving for Uz, Initial residual = 0.0125479, Final residual = 0.00102314, No Iterations 7
GAMG:  Solving for p, Initial residual = 0.0059235, Final residual = 2.87379e-05, No Iterations 4
time step continuity errors : sum local = 5.48951e-05, global = -1.3068e-06, cumulative = 0.000243952
smoothSolver:  Solving for omega, Initial residual = 0.000113389, Final residual = 8.80306e-06, No Iterations 3
smoothSolver:  Solving for k, Initial residual = 0.00162335, Final residual = 7.54559e-05, No Iterations 4
ExecutionTime = 26.89 s  ClockTime = 27 s

forceCoeffs forceCoeffs1 write:
    Coefficient	Total	Pressure	Viscous	Internal
    Cd:	0.408051	0.393347	0.014704	0
    Cd(f):	0.196949	0.189501	0.00744799	0
    Cd(r):	0.211102	0.203846	0.00725597	0
    Cl:	0.0707492	0.0705943	0.000154866	0
    Cl(f):	0.191648	0.185403	0.00624538	0
    Cl(r):	-0.120899	-0.114809	-0.00609051	0
    CmPitch:	0.156274	0.150106	0.00616794	0
    CmRoll:	-0.0070765	-0.00717251	9.60105e-05	0
    CmYaw:	0.00892091	0.00911832	-0.000197416	0
    Cs:	0.00580956	0.00581516	-5.59759e-06	0
    Cs(f):	0.0118257	0.0120259	-0.000200214	0
    Cs(r):	-0.00601612	-0.00621074	0.000194617	0

    writing force and moment coefficient files.

Time = 52

smoothSolver:  Solving for Ux, Initial residual = 0.00063142, Final residual = 4.7674e-05, No Iterations 8
smoothSolver:  Solving for Uy, Initial residual = 0.0142116, Final residual = 0.00116101, No Iterations 7
smoothSolver:  Solving for Uz, Initial residual = 0.012166, Final residual = 0.000996874, No Iterations 7
GAMG:  Solving for p, Initial residual = 0.00575741, Final residual = 2.75378e-05, No Iterations 4
time step continuity errors : sum local = 5.25425e-05, global = -1.09917e-06, cumulative = 0.000242853
smoothSolver:  Solving for omega, Initial residual = 0.000109204, Final residual = 8.4609e-06, No Iterations 3
smoothSolver:  Solving for k, Initial residual = 0.00155933, Final residual = 7.23286e-05, No Iterations 4
ExecutionTime = 27.4 s  ClockTime = 28 s

forceCoeffs forceCoeffs1 write:
    Coefficient	Total	Pressure	Viscous	Internal
    Cd:	0.408833	0.394116	0.0147179	0
    Cd(f):	0.198011	0.19055	0.00746083	0
    Cd(r):	0.210823	0.203566	0.00725709	0
    Cl:	0.0711437	0.0709766	0.000167079	0
    Cl(f):	0.191782	0.185524	0.0062574	0
    Cl(r):	-0.120638	-0.114548	-0.00609032	0
    CmPitch:	0.15621	0.150036	0.00617386	0
    CmRoll:	-0.00640591	-0.00650778	0.000101868	0
    CmYaw:	0.00927464	0.00946667	-0.000192031	0
    Cs:	0.00413745	0.00415433	-1.6878e-05	0
    Cs(f):	0.0113434	0.0115438	-0.00020047	0
    Cs(r):	-0.00720591	-0.0073895	0.000183592	0

    writing force and moment coefficient files.

Time = 53

smoothSolver:  Solving for Ux, Initial residual = 0.000605572, Final residual = 5.9814e-05, No Iterations 7
smoothSolver:  Solving for Uy, Initial residual = 0.0136612, Final residual = 0.00110463, No Iterations 7
smoothSolver:  Solving for Uz, Initial residual = 0.0117743, Final residual = 0.000961761, No Iterations 7
GAMG:  Solving for p, Initial residual = 0.00560135, Final residual = 2.64753e-05, No Iterations 4
time step continuity errors : sum local = 5.04532e-05, global = -9.94822e-07, cumulative = 0.000241858
[...]
    Coefficient	Total	Pressure	Viscous	Internal
    Cd:	0.41782	0.403392	0.0144285	0
    Cd(f):	0.190942	0.183615	0.00732693	0
    Cd(r):	0.226878	0.219776	0.00710157	0
    Cl:	0.068924	0.0687932	0.000130771	0
    Cl(f):	0.195769	0.189627	0.00614136	0
    Cl(r):	-0.126845	-0.120834	-0.00601059	0
    CmPitch:	0.161307	0.155231	0.00607597	0
    CmRoll:	-0.0179677	-0.0180804	0.000112677	0
    CmYaw:	0.0028818	0.00319065	-0.000308857	0
    Cs:	0.027645	0.0277308	-8.58235e-05	0
    Cs(f):	0.0167043	0.0170561	-0.000351769	0
    Cs(r):	0.0109407	0.0106748	0.000265946	0

    writing force and moment coefficient files.

Time = 488

smoothSolver:  Solving for Ux, Initial residual = 7.97959e-05, Final residual = 6.63463e-06, No Iterations 7
smoothSolver:  Solving for Uy, Initial residual = 0.0018203, Final residual = 0.000164081, No Iterations 6
smoothSolver:  Solving for Uz, Initial residual = 0.00167738, Final residual = 0.000149669, No Iterations 6
GAMG:  Solving for p, Initial residual = 0.00100959, Final residual = 4.17635e-06, No Iterations 4
time step continuity errors : sum local = 8.01031e-06, global = 3.96093e-07, cumulative = 0.000256458
smoothSolver:  Solving for omega, Initial residual = 1.60057e-05, Final residual = 9.12781e-07, No Iterations 3
smoothSolver:  Solving for k, Initial residual = 0.000120746, Final residual = 1.00822e-05, No Iterations 3
ExecutionTime = 252.81 s  ClockTime = 253 s

forceCoeffs forceCoeffs1 write:
    Coefficient	Total	Pressure	Viscous	Internal
    Cd:	0.417873	0.403455	0.0144186	0
    Cd(f):	0.190907	0.183583	0.00732478	0
    Cd(r):	0.226966	0.219872	0.00709383	0
    Cl:	0.0689748	0.0688425	0.000132351	0
    Cl(f):	0.195821	0.189683	0.00613834	0
    Cl(r):	-0.126846	-0.12084	-0.00600599	0
    CmPitch:	0.161334	0.155262	0.00607216	0
    CmRoll:	-0.0180293	-0.0181448	0.000115476	0
    CmYaw:	0.0028825	0.00318932	-0.000306822	0
    Cs:	0.0277472	0.0278388	-9.156e-05	0
    Cs(f):	0.0167561	0.0171087	-0.000352602	0
    Cs(r):	0.0109911	0.0107301	0.000261042	0

    writing force and moment coefficient files.

Time = 489

smoothSolver:  Solving for Ux, Initial residual = 8.20234e-05, Final residual = 6.85018e-06, No Iterations 7
smoothSolver:  Solving for Uy, Initial residual = 0.00186544, Final residual = 0.000169074, No Iterations 6
smoothSolver:  Solving for Uz, Initial residual = 0.00172134, Final residual = 0.000154662, No Iterations 6
GAMG:  Solving for p, Initial residual = 0.00103126, Final residual = 1.03101e-05, No Iterations 3
time step continuity errors : sum local = 1.97768e-05, global = 5.33036e-07, cumulative = 0.000256991
smoothSolver:  Solving for omega, Initial residual = 1.62562e-05, Final residual = 9.32362e-07, No Iterations 3
smoothSolver:  Solving for k, Initial residual = 0.000122491, Final residual = 1.02372e-05, No Iterations 3
ExecutionTime = 253.29 s  ClockTime = 254 s

forceCoeffs forceCoeffs1 write:
    Coefficient	Total	Pressure	Viscous	Internal
    Cd:	0.417958	0.403536	0.0144222	0
    Cd(f):	0.190907	0.183579	0.00732794	0
    Cd(r):	0.227051	0.219957	0.00709429	0
    Cl:	0.0691028	0.068973	0.000129726	0
    Cl(f):	0.195917	0.189777	0.00614071	0
    Cl(r):	-0.126815	-0.120804	-0.00601099	0
    CmPitch:	0.161366	0.15529	0.00607585	0
    CmRoll:	-0.0180722	-0.018189	0.000116825	0
    CmYaw:	0.00288231	0.0031907	-0.000308387	0
    Cs:	0.0278231	0.0279167	-9.35916e-05	0
    Cs(f):	0.0167939	0.0171491	-0.000355183	0
    Cs(r):	0.0110292	0.0107677	0.000261592	0

    writing force and moment coefficient files.

Time = 490

smoothSolver:  Solving for Ux, Initial residual = 8.23374e-05, Final residual = 6.83962e-06, No Iterations 7
smoothSolver:  Solving for Uy, Initial residual = 0.00187564, Final residual = 0.000167654, No Iterations 6
smoothSolver:  Solving for Uz, Initial residual = 0.00174047, Final residual = 0.000154429, No Iterations 6
GAMG:  Solving for p, Initial residual = 0.00104907, Final residual = 4.3502e-06, No Iterations 4
time step continuity errors : sum local = 8.34513e-06, global = 3.53007e-07, cumulative = 0.000257344
smoothSolver:  Solving for omega, Initial residual = 1.64903e-05, Final residual = 9.44328e-07, No Iterations 3
smoothSolver:  Solving for k, Initial residual = 0.000124341, Final residual = 1.03776e-05, No Iterations 3
ExecutionTime = 253.77 s  ClockTime = 254 s

forceCoeffs forceCoeffs1 write:
    Coefficient	Total	Pressure	Viscous	Internal
    Cd:	0.417972	0.40356	0.0144121	0
    Cd(f):	0.190838	0.183513	0.00732544	0
    Cd(r):	0.227134	0.220047	0.0070867	0
    Cl:	0.0691222	0.068989	0.000133203	0
    Cl(f):	0.195933	0.189794	0.00613903	0
    Cl(r):	-0.126811	-0.120805	-0.00600583	0
    CmPitch:	0.161372	0.1553	0.00607243	0
    CmRoll:	-0.018148	-0.0182674	0.000119368	0
    CmYaw:	0.00287588	0.00318267	-0.000306789	0
    Cs:	0.0279453	0.0280435	-9.82814e-05	0
    Cs(f):	0.0168485	0.0172044	-0.00035593	0
    Cs(r):	0.0110968	0.0108391	0.000257648	0

    writing force and moment coefficient files.

Time = 491

smoothSolver:  Solving for Ux, Initial residual = 8.44159e-05, Final residual = 6.99308e-06, No Iterations 7
smoothSolver:  Solving for Uy, Initial residual = 0.00192444, Final residual = 0.000172557, No Iterations 6
smoothSolver:  Solving for Uz, Initial residual = 0.00177486, Final residual = 0.000157331, No Iterations 6
GAMG:  Solving for p, Initial residual = 0.00107049, Final residual = 1.06108e-05, No Iterations 3
time step continuity errors : sum local = 2.03588e-05, global = 4.71114e-07, cumulative = 0.000257815
smoothSolver:  Solving for omega, Initial residual = 1.67774e-05, Final residual = 9.64548e-07, No Iterations 3
smoothSolver:  Solving for k, Initial residual = 0.000125658, Final residual = 1.04822e-05, No Iterations 3
ExecutionTime = 254.24 s  ClockTime = 255 s

forceCoeffs forceCoeffs1 write:
    Coefficient	Total	Pressure	Viscous	Internal
    Cd:	0.418048	0.403637	0.014411	0
    Cd(f):	0.190825	0.183498	0.00732653	0
    Cd(r):	0.227223	0.220139	0.00708445	0
    Cl:	0.0692646	0.0691356	0.000128985	0
    Cl(f):	0.196044	0.189906	0.00613791	0
    Cl(r):	-0.126779	-0.12077	-0.00600893	0
    CmPitch:	0.161412	0.155338	0.00607342	0
    CmRoll:	-0.0181992	-0.0183202	0.000121037	0
    CmYaw:	0.00288067	0.00318804	-0.00030737	0
    Cs:	0.0280308	0.0281313	-0.000100523	0
    Cs(f):	0.016896	0.0172537	-0.000357631	0
    Cs(r):	0.0111347	0.0108776	0.000257108	0

    writing force and moment coefficient files.

Time = 492

smoothSolver:  Solving for Ux, Initial residual = 8.4826e-05, Final residual = 6.98828e-06, No Iterations 7
smoothSolver:  Solving for Uy, Initial residual = 0.00193441, Final residual = 0.000170644, No Iterations 6
smoothSolver:  Solving for Uz, Initial residual = 0.00180078, Final residual = 0.000157317, No Iterations 6
GAMG:  Solving for p, Initial residual = 0.00108807, Final residual = 4.48548e-06, No Iterations 4
time step continuity errors : sum local = 8.60708e-06, global = 3.04081e-07, cumulative = 0.000258119
smoothSolver:  Solving for omega, Initial residual = 1.69597e-05, Final residual = 9.72717e-07, No Iterations 3
smoothSolver:  Solving for k, Initial residual = 0.000127128, Final residual = 1.05605e-05, No Iterations 3
ExecutionTime = 254.72 s  ClockTime = 255 s

forceCoeffs forceCoeffs1 write:
    Coefficient	Total	Pressure	Viscous	Internal
    Cd:	0.41806	0.403652	0.0144077	0
    Cd(f):	0.190737	0.18341	0.00732724	0
    Cd(r):	0.227323	0.220242	0.00708051	0
    Cl:	0.0692289	0.0690985	0.000130489	0
    Cl(f):	0.196032	0.189893	0.00613866	0
    Cl(r):	-0.126803	-0.120795	-0.00600818	0
    CmPitch:	0.161418	0.155344	0.00607342	0
    CmRoll:	-0.0182928	-0.0184162	0.000123363	0
    CmYaw:	0.00288216	0.00318807	-0.000305907	0
    Cs:	0.0281639	0.0282691	-0.000105127	0
    Cs(f):	0.0169641	0.0173226	-0.000358471	0
    Cs(r):	0.0111998	0.0109465	0.000253343	0

    writing force and moment coefficient files.

Time = 493

smoothSolver:  Solving for Ux, Initial residual = 8.65163e-05, Final residual = 7.10738e-06, No Iterations 7
smoothSolver:  Solving for Uy, Initial residual = 0.00197939, Final residual = 0.000175811, No Iterations 6
smoothSolver:  Solving for Uz, Initial residual = 0.00182806, Final residual = 0.000160626, No Iterations 6
GAMG:  Solving for p, Initial residual = 0.00110377, Final residual = 1.0835e-05, No Iterations 3
time step continuity errors : sum local = 2.07951e-05, global = 4.26638e-07, cumulative = 0.000258546
smoothSolver:  Solving for omega, Initial residual = 1.72125e-05, Final residual = 9.85888e-07, No Iterations 3
smoothSolver:  Solving for k, Initial residual = 0.000128367, Final residual = 1.06105e-05, No Iterations 3
ExecutionTime = 255.2 s  ClockTime = 256 s

forceCoeffs forceCoeffs1 write:
    Coefficient	Total	Pressure	Viscous	Internal
    Cd:	0.418105	0.403695	0.0144102	0
    Cd(f):	0.190713	0.183384	0.00732932	0
    Cd(r):	0.227392	0.220312	0.00708086	0
    Cl:	0.0693328	0.0692066	0.000126139	0
    Cl(f):	0.196101	0.189962	0.00613924	0
    Cl(r):	-0.126768	-0.120755	-0.0060131	0
    CmPitch:	0.161435	0.155358	0.00607617	0
    CmRoll:	-0.0183397	-0.018464	0.000124232	0
    CmYaw:	0.00289129	0.00319848	-0.00030719	0
    Cs:	0.0282302	0.0283364	-0.000106197	0
    Cs(f):	0.0170064	0.0173667	-0.000360289	0
    Cs(r):	0.0112238	0.0109697	0.000254092	0

    writing force and moment coefficient files.

Time = 494

smoothSolver:  Solving for Ux, Initial residual = 8.6634e-05, Final residual = 7.05018e-06, No Iterations 7
smoothSolver:  Solving for Uy, Initial residual = 0.00197984, Final residual = 0.000173899, No Iterations 6
smoothSolver:  Solving for Uz, Initial residual = 0.00183788, Final residual = 0.000159347, No Iterations 6
GAMG:  Solving for p, Initial residual = 0.00111939, Final residual = 4.55556e-06, No Iterations 4
time step continuity errors : sum local = 8.74423e-06, global = 2.73358e-07, cumulative = 0.000258819
smoothSolver:  Solving for omega, Initial residual = 1.72984e-05, Final residual = 9.91661e-07, No Iterations 3
smoothSolver:  Solving for k, Initial residual = 0.000129819, Final residual = 1.06451e-05, No Iterations 3
ExecutionTime = 255.68 s  ClockTime = 256 s

forceCoeffs forceCoeffs1 write:
    Coefficient	Total	Pressure	Viscous	Internal
    Cd:	0.418079	0.403674	0.0144046	0
    Cd(f):	0.190592	0.183262	0.00732955	0
    Cd(r):	0.227487	0.220412	0.00707507	0
    Cl:	0.0692933	0.0691647	0.000128653	0
    Cl(f):	0.196083	0.189943	0.00613975	0
    Cl(r):	-0.126789	-0.120778	-0.00601109	0
    CmPitch:	0.161436	0.155361	0.00607542	0
    CmRoll:	-0.0184478	-0.0185751	0.000127238	0
    CmYaw:	0.00289902	0.00320458	-0.000305561	0
    Cs:	0.0283783	0.0284906	-0.000112375	0
    Cs(f):	0.0170881	0.0174499	-0.000361748	0
    Cs(r):	0.0112901	0.0110407	0.000249373	0

    writing force and moment coefficient files.

Time = 495

smoothSolver:  Solving for Ux, Initial residual = 8.81093e-05, Final residual = 7.1347e-06, No Iterations 7
smoothSolver:  Solving for Uy, Initial residual = 0.00202268, Final residual = 0.000178214, No Iterations 6
smoothSolver:  Solving for Uz, Initial residual = 0.00188037, Final residual = 0.00016264, No Iterations 6
GAMG:  Solving for p, Initial residual = 0.00113128, Final residual = 1.11037e-05, No Iterations 3
time step continuity errors : sum local = 2.13181e-05, global = 4.05064e-07, cumulative = 0.000259224
smoothSolver:  Solving for omega, Initial residual = 1.75037e-05, Final residual = 1.00223e-06, No Iterations 3
smoothSolver:  Solving for k, Initial residual = 0.000131203, Final residual = 1.06809e-05, No Iterations 3
ExecutionTime = 256.17 s  ClockTime = 257 s

forceCoeffs forceCoeffs1 write:
    Coefficient	Total	Pressure	Viscous	Internal
    Cd:	0.418088	0.403681	0.014407	0
    Cd(f):	0.190536	0.183205	0.00733131	0
    Cd(r):	0.227552	0.220476	0.00707573	0
    Cl:	0.0693538	0.0692296	0.000124227	0
    Cl(f):	0.196115	0.189974	0.00614097	0
    Cl(r):	-0.126761	-0.120745	-0.00601675	0
    CmPitch:	0.161438	0.155359	0.00607886	0
    CmRoll:	-0.0185081	-0.0186359	0.000127794	0
    CmYaw:	0.00290976	0.00321677	-0.000307011	0
    Cs:	0.0284744	0.0285871	-0.000112647	0
    Cs(f):	0.017147	0.0175103	-0.000363335	0
    Cs(r):	0.0113274	0.0110768	0.000250688	0

    writing force and moment coefficient files.

Time = 496

smoothSolver:  Solving for Ux, Initial residual = 8.78575e-05, Final residual = 7.06152e-06, No Iterations 7
smoothSolver:  Solving for Uy, Initial residual = 0.00201295, Final residual = 0.000175273, No Iterations 6
smoothSolver:  Solving for Uz, Initial residual = 0.00187807, Final residual = 0.000160814, No Iterations 6
GAMG:  Solving for p, Initial residual = 0.00114123, Final residual = 4.61494e-06, No Iterations 4
time step continuity errors : sum local = 8.86123e-06, global = 2.61158e-07, cumulative = 0.000259485
smoothSolver:  Solving for omega, Initial residual = 1.74238e-05, Final residual = 1.00603e-06, No Iterations 3
smoothSolver:  Solving for k, Initial residual = 0.000132631, Final residual = 1.0712e-05, No Iterations 3
ExecutionTime = 256.65 s  ClockTime = 257 s

forceCoeffs forceCoeffs1 write:
    Coefficient	Total	Pressure	Viscous	Internal
    Cd:	0.418033	0.403631	0.0144018	0
    Cd(f):	0.190391	0.18306	0.00733097	0
    Cd(r):	0.227642	0.220571	0.00707086	0
    Cl:	0.0693031	0.0691776	0.000125487	0
    Cl(f):	0.196088	0.189948	0.00614035	0
    Cl(r):	-0.126785	-0.12077	-0.00601486	0
    CmPitch:	0.161436	0.155359	0.0060776	0
    CmRoll:	-0.0186256	-0.0187556	0.000130056	0
    CmYaw:	0.00294522	0.00324991	-0.000304686	0
    Cs:	0.0286418	0.0287592	-0.000117423	0
    Cs(f):	0.0172661	0.0176295	-0.000363398	0
    Cs(r):	0.0113757	0.0111297	0.000245974	0

    writing force and moment coefficient files.

Time = 497

smoothSolver:  Solving for Ux, Initial residual = 8.86394e-05, Final residual = 7.03953e-06, No Iterations 7
smoothSolver:  Solving for Uy, Initial residual = 0.00204674, Final residual = 0.0001795, No Iterations 6
smoothSolver:  Solving for Uz, Initial residual = 0.00190704, Final residual = 0.000162217, No Iterations 6
GAMG:  Solving for p, Initial residual = 0.00114937, Final residual = 1.1273e-05, No Iterations 3
time step continuity errors : sum local = 2.16496e-05, global = 3.79194e-07, cumulative = 0.000259865
smoothSolver:  Solving for omega, Initial residual = 1.75766e-05, Final residual = 1.00346e-06, No Iterations 3
smoothSolver:  Solving for k, Initial residual = 0.000133612, Final residual = 1.07339e-05, No Iterations 3
ExecutionTime = 257.16 s  ClockTime = 258 s

forceCoeffs forceCoeffs1 write:
    Coefficient	Total	Pressure	Viscous	Internal
    Cd:	0.418028	0.403621	0.0144073	0
    Cd(f):	0.190327	0.182993	0.00733368	0
    Cd(r):	0.227701	0.220627	0.00707359	0
    Cl:	0.0693613	0.0692415	0.000119753	0
    Cl(f):	0.196118	0.189977	0.00614162	0
    Cl(r):	-0.126757	-0.120735	-0.00602187	0
    CmPitch:	0.161438	0.155356	0.00608174	0
    CmRoll:	-0.018687	-0.018817	0.000130043	0
    CmYaw:	0.00297058	0.00327626	-0.000305678	0
    Cs:	0.0287383	0.028855	-0.000116707	0
    Cs(f):	0.0173397	0.0177038	-0.000364032	0
    Cs(r):	0.0113986	0.0111512	0.000247325	0

    writing force and moment coefficient files.

Time = 498

smoothSolver:  Solving for Ux, Initial residual = 8.85563e-05, Final residual = 6.98083e-06, No Iterations 7
smoothSolver:  Solving for Uy, Initial residual = 0.00204593, Final residual = 0.000177664, No Iterations 6
smoothSolver:  Solving for Uz, Initial residual = 0.00191088, Final residual = 0.00016055, No Iterations 6
GAMG:  Solving for p, Initial residual = 0.00115747, Final residual = 4.63517e-06, No Iterations 4
time step continuity errors : sum local = 8.90276e-06, global = 2.58579e-07, cumulative = 0.000260123
smoothSolver:  Solving for omega, Initial residual = 1.74894e-05, Final residual = 1.00896e-06, No Iterations 3
smoothSolver:  Solving for k, Initial residual = 0.000134695, Final residual = 1.07605e-05, No Iterations 3
ExecutionTime = 257.66 s  ClockTime = 258 s

forceCoeffs forceCoeffs1 write:
    Coefficient	Total	Pressure	Viscous	Internal
    Cd:	0.41794	0.403539	0.0144012	0
    Cd(f):	0.190149	0.182816	0.00733292	0
    Cd(r):	0.227791	0.220723	0.00706833	0
    Cl:	0.0692331	0.0691103	0.000122762	0
    Cl(f):	0.196037	0.189894	0.00614254	0
    Cl(r):	-0.126804	-0.120784	-0.00601978	0
    CmPitch:	0.16142	0.155339	0.00608116	0
    CmRoll:	-0.0188209	-0.0189532	0.000132292	0
    CmYaw:	0.00299881	0.0033023	-0.000303494	0
    Cs:	0.0289447	0.0290665	-0.000121794	0
    Cs(f):	0.0174712	0.0178356	-0.000364391	0
    Cs(r):	0.0114735	0.011231	0.000242597	0

    writing force and moment coefficient files.

Time = 499

smoothSolver:  Solving for Ux, Initial residual = 9.00565e-05, Final residual = 7.03154e-06, No Iterations 7
smoothSolver:  Solving for Uy, Initial residual = 0.00208724, Final residual = 0.00018313, No Iterations 6
smoothSolver:  Solving for Uz, Initial residual = 0.00194191, Final residual = 0.000162856, No Iterations 6
GAMG:  Solving for p, Initial residual = 0.00116663, Final residual = 1.14814e-05, No Iterations 3
time step continuity errors : sum local = 2.20571e-05, global = 3.72398e-07, cumulative = 0.000260496
smoothSolver:  Solving for omega, Initial residual = 1.75623e-05, Final residual = 1.00294e-06, No Iterations 3
smoothSolver:  Solving for k, Initial residual = 0.000135407, Final residual = 1.07625e-05, No Iterations 3
ExecutionTime = 258.14 s  ClockTime = 259 s

forceCoeffs forceCoeffs1 write:
    Coefficient	Total	Pressure	Viscous	Internal
    Cd:	0.417917	0.40351	0.0144062	0
    Cd(f):	0.19007	0.182735	0.00733485	0
    Cd(r):	0.227847	0.220775	0.00707135	0
    Cl:	0.0692723	0.0691541	0.000118272	0
    Cl(f):	0.19605	0.189906	0.00614427	0
    Cl(r):	-0.126778	-0.120752	-0.006026	0
    CmPitch:	0.161414	0.155329	0.00608513	0
    CmRoll:	-0.0188883	-0.01902	0.000131752	0
    CmYaw:	0.00301653	0.00332103	-0.000304498	0
    Cs:	0.0290583	0.0291785	-0.000120149	0
    Cs(f):	0.0175457	0.0179103	-0.000364572	0
    Cs(r):	0.0115126	0.0112682	0.000244423	0

    writing force and moment coefficient files.

Time = 500

smoothSolver:  Solving for Ux, Initial residual = 8.94249e-05, Final residual = 6.93467e-06, No Iterations 7
smoothSolver:  Solving for Uy, Initial residual = 0.00208243, Final residual = 0.000181106, No Iterations 6
smoothSolver:  Solving for Uz, Initial residual = 0.00193627, Final residual = 0.000161192, No Iterations 6
GAMG:  Solving for p, Initial residual = 0.00117079, Final residual = 4.63634e-06, No Iterations 4
time step continuity errors : sum local = 8.90777e-06, global = 2.42216e-07, cumulative = 0.000260738
smoothSolver:  Solving for omega, Initial residual = 1.73324e-05, Final residual = 9.95113e-07, No Iterations 3
smoothSolver:  Solving for k, Initial residual = 0.00013635, Final residual = 1.07551e-05, No Iterations 3
ExecutionTime = 258.64 s  ClockTime = 259 s

streamLine streamLines write:
    seeded 20 particles
    Tracks:20
    Total samples:18507
nearWallFields near write:
    Sampling fields to 500
    Writing sampled fields to 500
wallBoundedStreamLine wallBoundedStreamLines write:
wallBoundedStreamLine : seeded 19927 particles.
    Tracks:19927
    Total samples:448083
forceCoeffs forceCoeffs1 write:
    Coefficient	Total	Pressure	Viscous	Internal
    Cd:	0.4178	0.4034	0.0143998	0
    Cd(f):	0.189892	0.182559	0.00733275	0
    Cd(r):	0.227908	0.220841	0.00706706	0
    Cl:	0.0691707	0.0690529	0.000117853	0
    Cl(f):	0.195975	0.189833	0.00614188	0
    Cl(r):	-0.126804	-0.12078	-0.00602403	0
    CmPitch:	0.161389	0.155306	0.00608296	0
    CmRoll:	-0.0190081	-0.0191409	0.000132844	0
    CmYaw:	0.00305767	0.00335935	-0.000301676	0
    Cs:	0.0292332	0.0293563	-0.000123035	0
    Cs(f):	0.0176743	0.0180375	-0.000363193	0
    Cs(r):	0.0115589	0.0113188	0.000240158	0

    writing force and moment coefficient files.

ensightWrite ensightWrite write:
    k
    omega
    p
    U

Scanning for sections beginning with "Time ="
Cached 47 lines
End

Finalising parallel run
