/*---------------------------------------------------------------------------*\
| =========                 |                                                 |
| \\      /  F ield         | OpenFOAM: The Open Source CFD Toolbox           |
|  \\    /   O peration     | Version:  2412                                  |
|   \\  /    A nd           | Website:  www.openfoam.com                      |
|    \\/     M anipulation  |                                                 |
\*---------------------------------------------------------------------------*/
Build  : _45e7c4a0-20241224 OPENFOAM=2412 version=2412
Arch   : "LSB;label=32;scalar=64"
Exec   : surfaceFeatureConvert motorBike.eMesh motorbike_mesh.obj
Date   : Mar 05 2025
Time   : 12:25:16
Host   : 33b1b2a66ff6
PID    : 869
I/O    : uncollated
Case   : /root/OpenFOAM/user-v2412/work/OpenFOAM_v2412_cases/motorBike/constant/triSurface
nProcs : 1
trapFpe: Floating point exception trapping enabled (FOAM_SIGFPE).
fileModificationChecking : Monitoring run-time modified files using timeStampMaster (fileModificationSkew 5, maxFileModificationPolls 20)
allowSystemOperations : Allowing user-supplied system call operations

// * * * * * * * * * * * * * * * * * * * * * * * * * * * * * * * * * * * * * //

Read edgeMesh "motorBike.eMesh"
points      : 20665
edges       : 20867
boundingBox : (-0.241214 -0.337971 -4.232e-05) (1.75115 0.329368 1.21979)


writing "motorbike_mesh.obj" without scaling
points      : 20665
edges       : 20867
boundingBox : (-0.241214 -0.337971 -4.232e-05) (1.75115 0.329368 1.21979)

End
