/*---------------------------------------------------------------------------*\
| =========                 |                                                 |
| \\      /  F ield         | OpenFOAM: The Open Source CFD Toolbox           |
|  \\    /   O peration     | Version:  2412                                  |
|   \\  /    A nd           | Website:  www.openfoam.com                      |
|    \\/     M anipulation  |                                                 |
\*---------------------------------------------------------------------------*/
Build  : _45e7c4a0-20241224 OPENFOAM=2412 version=2412
Arch   : "LSB;label=32;scalar=64"
Exec   : decomposePar -decomposeParDict system/decomposeParDict.hierarchical
Date   : Mar 05 2025
Time   : 13:00:43
Host   : 33b1b2a66ff6
PID    : 1040
I/O    : uncollated
Case   : /root/OpenFOAM/user-v2412/work/OpenFOAM_v2412_cases/incompressible_pisoFoam_LES_motorBike/motorBike
nProcs : 1
trapFpe: Floating point exception trapping enabled (FOAM_SIGFPE).
fileModificationChecking : Monitoring run-time modified files using timeStampMaster (fileModificationSkew 5, maxFileModificationPolls 20)
allowSystemOperations : Allowing user-supplied system call operations

// * * * * * * * * * * * * * * * * * * * * * * * * * * * * * * * * * * * * * //
Create time



Decomposing mesh

Create mesh

Calculating distribution of cells
Decomposition method hierarchical [8] (region region0)

Finished decomposition in 0 s

Calculating original mesh data

Distributing cells to processors

Distributing faces to processors

Distributing points to processors

Constructing processor meshes

Processor 0
    Number of cells = 160
    Number of points = 270
    Number of faces shared with processor 1 = 32
    Number of faces shared with processor 4 = 40
    Number of processor patches = 2
    Number of processor faces = 72
    Number of boundary faces = 112

Processor 1
    Number of cells = 160
    Number of points = 270
    Number of faces shared with processor 0 = 32
    Number of faces shared with processor 2 = 32
    Number of faces shared with processor 5 = 40
    Number of processor patches = 3
    Number of processor faces = 104
    Number of boundary faces = 80

Processor 2
    Number of cells = 160
    Number of points = 270
    Number of faces shared with processor 1 = 32
    Number of faces shared with processor 3 = 32
    Number of faces shared with processor 6 = 40
    Number of processor patches = 3
    Number of processor faces = 104
    Number of boundary faces = 80

Processor 3
    Number of cells = 160
    Number of points = 270
    Number of faces shared with processor 2 = 32
    Number of faces shared with processor 7 = 40
    Number of processor patches = 2
    Number of processor faces = 72
    Number of boundary faces = 112

Processor 4
    Number of cells = 160
    Number of points = 270
    Number of faces shared with processor 0 = 40
    Number of faces shared with processor 5 = 32
    Number of processor patches = 2
    Number of processor faces = 72
    Number of boundary faces = 112

Processor 5
    Number of cells = 160
    Number of points = 270
    Number of faces shared with processor 1 = 40
    Number of faces shared with processor 4 = 32
    Number of faces shared with processor 6 = 32
    Number of processor patches = 3
    Number of processor faces = 104
    Number of boundary faces = 80

Processor 6
    Number of cells = 160
    Number of points = 270
    Number of faces shared with processor 2 = 40
    Number of faces shared with processor 5 = 32
    Number of faces shared with processor 7 = 32
    Number of processor patches = 3
    Number of processor faces = 104
    Number of boundary faces = 80

Processor 7
    Number of cells = 160
    Number of points = 270
    Number of faces shared with processor 3 = 40
    Number of faces shared with processor 6 = 32
    Number of processor patches = 2
    Number of processor faces = 72
    Number of boundary faces = 112

Number of processor faces = 352
Max number of cells = 160 (0% above average 160)
Max number of processor patches = 3 (20% above average 2.5)
Max number of faces between processors = 104 (18.1818% above average 88)

Time = 0

Processor 0: field transfer
Processor 1: field transfer
Processor 2: field transfer
Processor 3: field transfer
Processor 4: field transfer
Processor 5: field transfer
Processor 6: field transfer
Processor 7: field transfer

End

