/*---------------------------------------------------------------------------*\
| =========                 |                                                 |
| \\      /  F ield         | OpenFOAM: The Open Source CFD Toolbox           |
|  \\    /   O peration     | Version:  2412                                  |
|   \\  /    A nd           | Website:  www.openfoam.com                      |
|    \\/     M anipulation  |                                                 |
\*---------------------------------------------------------------------------*/
Build  : _45e7c4a0-20241224 OPENFOAM=2412 version=2412
Arch   : "LSB;label=32;scalar=64"
Exec   : snappyHexMesh -checkGeometry
Date   : Mar 05 2025
Time   : 12:41:25
Host   : 33b1b2a66ff6
PID    : 917
I/O    : uncollated
Case   : /root/OpenFOAM/user-v2412/work/OpenFOAM_v2412_cases/motorBike
nProcs : 1
trapFpe: Floating point exception trapping enabled (FOAM_SIGFPE).
fileModificationChecking : Monitoring run-time modified files using timeStampMaster (fileModificationSkew 5, maxFileModificationPolls 20)
allowSystemOperations : Allowing user-supplied system call operations

// * * * * * * * * * * * * * * * * * * * * * * * * * * * * * * * * * * * * * //
Create time

Create mesh for time = 0

Read mesh in = 0.01 s

Overall mesh bounding box  : (-5 -4 0) (15 4 8)
Relative tolerance         : 1e-06
Absolute matching distance : 2.29783e-05

Reading refinement surfaces.
Read refinement surfaces in = 0.26 s

Statistics.
    motorBike:
        type      : triSurfaceMesh
        size      : 331653
        edges     : 397350
        points    : 132871
        bounds    : (-0.291665 -0.350289 -4.232e-05) (1.75115 0.332267 1.35152)
        closed    : false
        patches   : wall
    refinementBox:
        type      : searchableBox
        size      : 6
        bounds    : (-1 -0.7 0) (8 0.7 2.5)
        closed    : true

Checking for closedness.
    motorBike : not closed
        connected to one face : 49
        connected to >2 faces : 100089

Checking for normal orientation.
    motorBike : has multiple orientation zones (132055)

Checking for size.

Checking for intersection.
    motorBike intersects refinementBox at 72 locations.
    Wrote intersection locations to "/root/OpenFOAM/user-v2412/work/OpenFOAM_v2412_cases/motorBike/motorBike_refinementBox_edgeIndex.vtp"

Checking for triangle quality.
