/*---------------------------------------------------------------------------*\
  =========                 |
  \\      /  F ield         | OpenFOAM: The Open Source CFD Toolbox
   \\    /   O peration     | Website:  https://openfoam.org
    \\  /    A nd           | Version:  12
     \\/     M anipulation  |
\*---------------------------------------------------------------------------*/
Build  : 12-86e126a7bc4d
Exec   : ideasUnvToFoam cad/backgroundMesh.unv
Date   : Mar 01 2025
Time   : 12:04:44
Host   : "297a99731212"
PID    : 252
I/O    : uncollated
Case   : /root/OpenFOAM/12/work/OpenFOAM_12_cases/verticalAxialWindTurbineNCC
nProcs : 1
sigFpe : Enabling floating point exception trapping (FOAM_SIGFPE).
fileModificationChecking : Monitoring run-time modified files using timeStampMaster (fileModificationSkew 10)
allowSystemOperations : Allowing user-supplied system call operations

// * * * * * * * * * * * * * * * * * * * * * * * * * * * * * * * * * * * * * //
Create time

Processing tag:164
Starting reading units at line 3.
l:1
units:"  SI: Meter (newton)"
unitType:2
Unit factors:
    Length scale       : 1
    Force scale        : 1
    Temperature scale  : 1
    Temperature offset : 273.15


Processing tag:2420
Skipping tag 2420 on line 9
Skipping section at line 9.

Processing tag:2411
Starting reading points at line 20.
Read 20412 points.

Processing tag:2412
Starting reading cells at line 40847.
First occurrence of element type 11 for cell 1 at line 40848
First occurrence of element type 44 for cell 5 at line 43320
First occurrence of element type 115 for cell 1235 at line 84140
Read 10000 cells and 20410 boundary faces.

Processing tag:2467
Starting reading patches at line 104142.
For group 1 named inlet trying to read 80 patch face indices.
For group 2 named outlet trying to read 80 patch face indices.
For group 3 named front trying to read 10000 patch face indices.
For group 4 named back trying to read 10000 patch face indices.
For group 5 named bottom trying to read 125 patch face indices.
For group 6 named top trying to read 125 patch face indices.

Sorting boundary faces according to group (patch)
0: inlet is patch
1: outlet is patch
2: front is patch
3: back is patch
4: bottom is patch
5: top is patch

Constructing mesh with non-default patches of size:
    inlet	80
    outlet	80
    front	10000
    back	10000
    bottom	125
    top	125

End

/*---------------------------------------------------------------------------*\
  =========                 |
  \\      /  F ield         | OpenFOAM: The Open Source CFD Toolbox
   \\    /   O peration     | Website:  https://openfoam.org
    \\  /    A nd           | Version:  12
     \\/     M anipulation  |
\*---------------------------------------------------------------------------*/
Build  : 12-86e126a7bc4d
Exec   : surfaceFeatures
Date   : Mar 01 2025
Time   : 12:04:44
Host   : "297a99731212"
PID    : 253
I/O    : uncollated
Case   : /root/OpenFOAM/12/work/OpenFOAM_12_cases/verticalAxialWindTurbineNCC
nProcs : 1
sigFpe : Enabling floating point exception trapping (FOAM_SIGFPE).
fileModificationChecking : Monitoring run-time modified files using timeStampMaster (fileModificationSkew 10)
allowSystemOperations : Allowing user-supplied system call operations

// * * * * * * * * * * * * * * * * * * * * * * * * * * * * * * * * * * * * * //
Create time

Reading "surfaceFeaturesDict"

Surface            : "AMI.stl"


Feature line extraction is only valid on closed manifold surfaces.
Statistics:
Triangles    : 34638
Vertices     : 17321
Bounding Box : (-0.45 -0.45 0) (0.45 0.449999 0.05)


Constructing feature set from included angle 2.56563
Selecting edges purely based on geometric tests: no
Removing features of length < 0.01
Removing features with number of edges < 5

Initial feature set:
    feature points : 0
    feature edges  : 566
    of which
        region edges   : 0
        external edges : 566
        internal edges : 0


Final feature set:
points      : 566
edges       : 566
boundingBox : (-0.449972 -0.449993 0) (0.45 0.449993 0.05)
point classification :
    convex feature points          :        0
    concave feature points         :        0
    mixed feature points           :        0
    other (non-feature) points     :      566
edge classification :
    external (convex angle) edges  :      566
    internal (concave angle) edges :        0
    flat region edges              :        0
    open edges                     :        0
    multiply connected edges       :        0

Writing extendedFeatureEdgeMesh to "constant/extendedFeatureEdgeMesh/AMI.extendedFeatureEdgeMesh"

Writing featureEdgeMesh to "constant/triSurface/AMI.eMesh"

ExecutionTime = 0.112852 s  ClockTime = 0 s

End

/*---------------------------------------------------------------------------*\
  =========                 |
  \\      /  F ield         | OpenFOAM: The Open Source CFD Toolbox
   \\    /   O peration     | Website:  https://openfoam.org
    \\  /    A nd           | Version:  12
     \\/     M anipulation  |
\*---------------------------------------------------------------------------*/
Build  : 12-86e126a7bc4d
Exec   : snappyHexMesh -overwrite
Date   : Mar 01 2025
Time   : 12:04:44
Host   : "297a99731212"
PID    : 254
I/O    : uncollated
Case   : /root/OpenFOAM/12/work/OpenFOAM_12_cases/verticalAxialWindTurbineNCC
nProcs : 1
sigFpe : Enabling floating point exception trapping (FOAM_SIGFPE).
fileModificationChecking : Monitoring run-time modified files using timeStampMaster (fileModificationSkew 10)
allowSystemOperations : Allowing user-supplied system call operations

// * * * * * * * * * * * * * * * * * * * * * * * * * * * * * * * * * * * * * //
Create time

Create mesh for time = 0

Read mesh in = 0.049739 s
Reading "snappyHexMeshDict"


Overall mesh bounding box  : (-0.85 -0.8 0) (1.65 0.8 0.05)
Relative tolerance         : 1e-06
Absolute matching distance : 2.96859e-06

Reading refinement surfaces...
Read refinement surfaces in = 0.047364 s

Reading refinement regions...
Refinement level 1 for all cells inside AMI
Read refinement regions in = 0.023314 s

Reading features...
Read edgeMesh blenderEdgeMesh.obj
    points      : 1062
    edges       : 1062
    boundingBox : (-0.279488 -0.179188 -0) (0.280731 0.310492 0.05)

Refinement level according to distance to "blenderEdgeMesh.obj" (1062 points, 1062 edges).
    level 0 for all cells within 0 metre.
Read edgeMesh AMI.eMesh
    points      : 566
    edges       : 566
    boundingBox : (-0.449972 -0.449993 0) (0.45 0.449993 0.05)

Refinement level according to distance to "AMI.eMesh" (566 points, 566 edges).
    level 0 for all cells within 0 metre.
Read features in = 0.003667 s


Determining initial surface intersections
-----------------------------------------

Edge intersection testing:
    Number of edges             : 40205
    Number of edges to retest   : 40205
    Number of intersected edges : 1808
Calculated surface intersections in = 0.055032 s

Initial mesh : cells:10000  faces:40205  points:20412
Cells per refinement level:
    0	10000

Adding patches for surface regions
----------------------------------

Patch Type                Region                        
----- ----                ------                        
VAWT:

6     wall                VAWT                          

AMI:

7     wall                AMI                           
8     wall                AMI_slave                     

Added patches in = 0.000812 s

Selecting distributor none
Cell selection insidePoints: 1((0.5 0 0.001))

Refinement phase
----------------

Found point (0.5 0 0.001) in cell 4942 on processor 0

Feature refinement iteration 0
------------------------------

Marked for refinement due to explicit features             : 0 cells.
Determined cells to refine in = 0.02384 s
Selected for feature refinement : 0 cells (out of 10000)
Stopping refining since too few cells selected.


Surface refinement iteration 0
------------------------------

Marked for refinement due to surface intersection          : 1718 cells.
Determined cells to refine in = 0.002881 s
Selected for refinement : 1718 cells (out of 10000)
Edge intersection testing:
    Number of edges             : 81716
    Number of edges to retest   : 49016
    Number of intersected edges : 7266
Refined mesh in = 0.080729 s
After refinement surface refinement iteration 0 : cells:22026  faces:81716  points:37965
Cells per refinement level:
    0	8282
    1	13744

Surface refinement iteration 1
------------------------------

Marked for refinement due to surface intersection          : 276 cells.
Determined cells to refine in = 0.008106 s
Selected for refinement : 276 cells (out of 22026)
Edge intersection testing:
    Number of edges             : 88400
    Number of edges to retest   : 8575
    Number of intersected edges : 8268
Refined mesh in = 0.07066 s
After refinement surface refinement iteration 1 : cells:23958  faces:88400  points:40850
Cells per refinement level:
    0	8282
    1	13468
    2	2208

Surface refinement iteration 2
------------------------------

Marked for refinement due to surface intersection          : 1223 cells.
Determined cells to refine in = 0.010483 s
Selected for refinement : 1277 cells (out of 23958)
Edge intersection testing:
    Number of edges             : 118388
    Number of edges to retest   : 38201
    Number of intersected edges : 11953
Refined mesh in = 0.150565 s
After refinement surface refinement iteration 2 : cells:32897  faces:118388  points:53066
Cells per refinement level:
    0	8282
    1	13410
    2	1453
    3	9752

Surface refinement iteration 3
------------------------------

Marked for refinement due to surface intersection          : 12 cells.
Determined cells to refine in = 0.01548 s
Selected for refinement : 12 cells (out of 32897)
Edge intersection testing:
    Number of edges             : 118661
    Number of edges to retest   : 829
    Number of intersected edges : 11962
Refined mesh in = 0.070451 s
After refinement surface refinement iteration 3 : cells:32981  faces:118661  points:53172
Cells per refinement level:
    0	8282
    1	13410
    2	1441
    3	9848

Surface refinement iteration 4
------------------------------

Marked for refinement due to surface intersection          : 0 cells.
Determined cells to refine in = 0.015314 s
Selected for refinement : 0 cells (out of 32981)
Stopping refining since too few cells selected.


Removing mesh beyond surface intersections
------------------------------------------

Selecting all cells in regions containing any of the points in 1((0.5 0 0.001))
Selected: 30868 cells.
Edge intersection testing:
    Number of edges             : 113296
    Number of edges to retest   : 3100
    Number of intersected edges : 11962

Shell refinement iteration 0
----------------------------

Marked for refinement due to distance to explicit features : 0 cells.
Marked for refinement due to refinement shells             : 0 cells.
Determined cells to refine in = 0.631692 s
Selected for internal refinement : 1300 cells (out of 30868)
Edge intersection testing:
    Number of edges             : 142525
    Number of edges to retest   : 52547
    Number of intersected edges : 12907
Refined mesh in = 0.171082 s
After refinement shell refinement iteration 0 : cells:39968  faces:142525  points:62945
Cells per refinement level:
    0	8100
    1	14617
    2	2228
    3	15023

Shell refinement iteration 1
----------------------------

Marked for refinement due to distance to explicit features : 0 cells.
Marked for refinement due to refinement shells             : 0 cells.
Determined cells to refine in = 0.263445 s
Selected for internal refinement : 280 cells (out of 39968)
Edge intersection testing:
    Number of edges             : 148909
    Number of edges to retest   : 15523
    Number of intersected edges : 13258
Refined mesh in = 0.10623 s
After refinement shell refinement iteration 1 : cells:41928  faces:148909  points:65426
Cells per refinement level:
    0	8089
    1	14486
    2	3930
    3	15423

Shell refinement iteration 2
----------------------------

Marked for refinement due to distance to explicit features : 0 cells.
Marked for refinement due to refinement shells             : 0 cells.
Determined cells to refine in = 0.26295 s
Selected for internal refinement : 0 cells (out of 41928)
Stopping refining since too few cells selected.


Dangling coarse cells refinement iteration 0
--------------------------------------------

Determined cells to refine in = 0.001063 s
Selected for refinement : 0 cells (out of 41928)
Stopping refining since too few cells selected.


Dangling coarse cells refinement iteration 0
--------------------------------------------

Determined cells to refine in = 0.000966 s
Selected for refinement : 0 cells (out of 41928)
Stopping refining since too few cells selected.


Splitting mesh at surface intersections
---------------------------------------

Introducing baffles for 13258 faces that are intersected by the surface.

Edge intersection testing:
    Number of edges             : 151693
    Number of edges to retest   : 22587
    Number of intersected edges : 16042
Created baffles in = 0.142242 s


After introducing baffles : cells:41928  faces:151693  points:65426
Cells per refinement level:
    0	8089
    1	14486
    2	3930
    3	15423

Introducing baffles to block off problem cells
----------------------------------------------

markFacesOnProblemCells : marked 5875 additional internal faces to be converted into baffles.
Analyzed problem cells in = 0.049584 s


Introducing baffles to delete problem cells.

Edge intersection testing:
    Number of edges             : 157568
    Number of edges to retest   : 19145
    Number of intersected edges : 16042
Created baffles in = 0.119071 s


After introducing baffles : cells:41928  faces:157568  points:65426
Cells per refinement level:
    0	8089
    1	14486
    2	3930
    3	15423

Remove unreachable sections of mesh
-----------------------------------

Keeping all cells in regions containing any point in 1((0.5 0 0.001))
Selected for keeping : 37224 cells.
Edge intersection testing:
    Number of edges             : 133240
    Number of edges to retest   : 0
    Number of intersected edges : 11823
Split mesh in = 0.426125 s


After subsetting : cells:37224  faces:133240  points:59413
Cells per refinement level:
    0	8089
    1	14473
    2	3662
    3	11000

Introducing zones for interfaces
--------------------------------

Surface : AMI
    faceZone : innerAMI
    cellZone : innerAMI
Found 1 closed, named surfaces. Assigning cells in/outside these surfaces to the corresponding cellZone.

Walking from locations-in-mesh 1((0.5 0 0.001)) to assign cellZones - crossing a faceZone face changes cellZone

Found point (0.5 0 0.001) in global region 0 out of 2 regions.
Only selecting zone faces in between different cellZones.

CellZones:
    innerAMI	size:26599

FaceZones:
    innerAMI	size:720

Edge intersection testing:
    Number of edges             : 133240
    Number of edges to retest   : 0
    Number of intersected edges : 11823

Handling cells with snap problems
---------------------------------

Introducing baffles for 11823 faces that are intersected by the surface.

Edge intersection testing:
    Number of edges             : 133240
    Number of edges to retest   : 9386
    Number of intersected edges : 11823
Created baffles in = 0.739252 s


After introducing baffles : cells:37224  faces:133240  points:59413
Cells per refinement level:
    0	8089
    1	14473
    2	3662
    3	11000

Introducing baffles to block off problem cells
----------------------------------------------

markFacesOnProblemCells : marked 0 additional internal faces to be converted into baffles.
Analyzed problem cells in = 0.037759 s


Introducing baffles to delete problem cells.

Edge intersection testing:
    Number of edges             : 133240
    Number of edges to retest   : 0
    Number of intersected edges : 11823
Created baffles in = 0.057546 s


After introducing baffles : cells:37224  faces:133240  points:59413
Cells per refinement level:
    0	8089
    1	14473
    2	3662
    3	11000

Remove unreachable sections of mesh
-----------------------------------

Split mesh in = 0.335202 s


After subsetting : cells:37224  faces:133240  points:59413
Cells per refinement level:
    0	8089
    1	14473
    2	3662
    3	11000

Merge free-standing baffles
---------------------------

freeStandingBaffles : detected 24 free-standing baffles out of 48

freeStandingBaffles : detected 0 planar (within 54 degrees) free-standing baffles out of 24

Detected free-standing baffles : 0
Merged free-standing baffles in = 0.022177 s


dupNonManifoldPoints : Found : 63 non-manifold points (out of 59413)
Edge intersection testing:
    Number of edges             : 133240
    Number of edges to retest   : 0
    Number of intersected edges : 11823
Detected unsplittable baffles : 0

Merge refined boundary faces
----------------------------

Merging 0 sets of faces.

No faces merged ...

Merging all points on surface that
- are used by only two boundary faces and
- make an angle with a cosine of more than 0.707107.

No straight edges simplified and no points removed ...
Refined mesh : cells:37224  faces:133240  points:59476
Cells per refinement level:
    0	8089
    1	14473
    2	3662
    3	11000
Writing mesh to time constant
Wrote mesh in = 0.149251 s.
Mesh refined in = 3.96408 s.

Morphing phase
--------------

Converting zoned faces into baffles ...
For zone innerAMI found patches AMI and AMI_slave
Edge intersection testing:
    Number of edges             : 133960
    Number of edges to retest   : 4996
    Number of intersected edges : 12543
Created 720 baffles in = 0.070273 s


Surface : AMI
    faces to become baffle : 1440
    points to duplicate    : 1080
dupNonManifoldPoints : Found : 1080 non-manifold points (out of 59476)
Edge intersection testing:
    Number of edges             : 133960
    Number of edges to retest   : 0
    Number of intersected edges : 12543

Snapping to features in 5 iterations ...
Constructing mesh displacer ...
Using mesh parameters 
{
    maxNonOrtho     84;
    maxBoundarySkewness 20;
    maxInternalSkewness 4;
    maxConcave      80;
    minVol          -1e+30;
    minTetQuality   1e-15;
    minTwist        0.02;
    minDeterminant  0.001;
    minFaceWeight   0.05;
    minVolRatio     0.01;
    nSmoothScale    4;
    errorReduction  0.75;
    relaxed
    {
        maxNonOrtho     180;
    }
}


Checking initial mesh ...
Checking faces in error :
    non-orthogonality > 84  degrees                        : 0
    faces with face-decomposition tet quality < 1e-15      : 0
    faces with concavity > 80  degrees                     : 0
    faces with skewness > 4   (internal) or 20  (boundary) : 0
    faces with interpolation weights (0..1)  < 0.05        : 0
    faces with volume ratio of neighbour cells < 0.01      : 0
    faces with face twist < 0.02                           : 0
    faces on cells with determinant < 0.001                : 0
Detected 0 illegal faces (concave, zero area or negative cell pyramid volume)
Checked initial mesh in = 0.124155 s


Smoothing patch points ...
Smoothing iteration 0
Found 2286 non-manifold point(s).

Scaling iteration 0
Moving mesh using displacement scaling : min:1  max:1
Checking faces in error :
    non-orthogonality > 84  degrees                        : 0
    faces with face-decomposition tet quality < 1e-15      : 0
    faces with concavity > 80  degrees                     : 0
    faces with skewness > 4   (internal) or 20  (boundary) : 0
    faces with interpolation weights (0..1)  < 0.05        : 0
    faces with volume ratio of neighbour cells < 0.01      : 0
    faces with face twist < 0.02                           : 0
    faces on cells with determinant < 0.001                : 0
Successfully moved mesh

Smoothing iteration 1
Found 0 non-manifold point(s).

Scaling iteration 0
Moving mesh using displacement scaling : min:1  max:1
Checking faces in error :
    non-orthogonality > 84  degrees                        : 0
    faces with face-decomposition tet quality < 1e-15      : 0
    faces with concavity > 80  degrees                     : 0
    faces with skewness > 4   (internal) or 20  (boundary) : 0
    faces with interpolation weights (0..1)  < 0.05        : 0
    faces with volume ratio of neighbour cells < 0.01      : 0
    faces with face twist < 0.02                           : 0
    faces on cells with determinant < 0.001                : 0
Successfully moved mesh

Smoothing iteration 2
Found 0 non-manifold point(s).

Scaling iteration 0
Moving mesh using displacement scaling : min:1  max:1
Checking faces in error :
    non-orthogonality > 84  degrees                        : 0
    faces with face-decomposition tet quality < 1e-15      : 0
    faces with concavity > 80  degrees                     : 0
    faces with skewness > 4   (internal) or 20  (boundary) : 0
    faces with interpolation weights (0..1)  < 0.05        : 0
    faces with volume ratio of neighbour cells < 0.01      : 0
    faces with face twist < 0.02                           : 0
    faces on cells with determinant < 0.001                : 0
Successfully moved mesh

Smoothing iteration 3
Found 0 non-manifold point(s).

Scaling iteration 0
Moving mesh using displacement scaling : min:1  max:1
Checking faces in error :
    non-orthogonality > 84  degrees                        : 0
    faces with face-decomposition tet quality < 1e-15      : 0
    faces with concavity > 80  degrees                     : 0
    faces with skewness > 4   (internal) or 20  (boundary) : 0
    faces with interpolation weights (0..1)  < 0.05        : 0
    faces with volume ratio of neighbour cells < 0.01      : 0
    faces with face twist < 0.02                           : 0
    faces on cells with determinant < 0.001                : 0
Successfully moved mesh

Patch points smoothed in = 0.258657 s



Morph iteration 0
-----------------
Calculating patchDisplacement as distance to nearest surface point ...
Wanted displacement : average:0.00154622 min:0 max:0.00735214
Calculated surface displacement in = 0.020836 s


Detecting near surfaces ...
Overriding nearest with intersection of close gaps at 28 out of 5346 points.
Overriding displacement on features :
   implicit features    : false
   explicit features    : true
   multi-patch features : true

Detected 24 baffle edges out of 9618 edges.
Initially selected 2180 points out of 5346 for reverse attraction.
Selected 3640 points out of 5346 for reverse attraction.
Removing constraints near multi-patch points : changed 0 points
Stringing feature edges : changed 15 points
Stringing feature edges : changed 2 points
Stringing feature edges : changed 1 points
Stringing feature edges : changed 0 points
Attraction:
     linear   : max:(0.00728762 -0.000971769 1.21498e-05) avg:(3.23015e-07 4.48782e-06 -9.29618e-09)
     feature  : max:(0.00711172 -0.00103946 0) avg:(1.17323e-06 1.51172e-06 1.00345e-10)
Feature analysis : total master points:5346 attraction to :
    feature point   : 0
    feature edge    : 2166
    nearest surface : 0
    rest            : 3180

--> FOAM Warning : Displacement (-7.51532e-05 6.63627e-05 0) at mesh point 4594 coord (0.250151 -0.178413 0) points through the surrounding patch faces
Smoothing displacement ...
Iteration 0
Iteration 10
Iteration 20
Iteration 30
Iteration 40
Iteration 50
Iteration 60
Iteration 70
Iteration 80
Iteration 90
Iteration 100
Iteration 110
Iteration 120
Iteration 130
Iteration 140
Iteration 150
Iteration 160
Iteration 170
Displacement smoothed in = 0.318607 s


Moving mesh ...

Iteration 0
Moving mesh using displacement scaling : min:1  max:1
Checking faces in error :
    non-orthogonality > 84  degrees                        : 0
    faces with face-decomposition tet quality < 1e-15      : 0
    faces with concavity > 80  degrees                     : 0
    faces with skewness > 4   (internal) or 20  (boundary) : 0
    faces with interpolation weights (0..1)  < 0.05        : 0
    faces with volume ratio of neighbour cells < 0.01      : 0
    faces with face twist < 0.02                           : 0
    faces on cells with determinant < 0.001                : 0
Successfully moved mesh
Moved mesh in = 0.052718 s



Morph iteration 1
-----------------
Calculating patchDisplacement as distance to nearest surface point ...
Wanted displacement : average:0.00128301 min:0 max:0.00611336
Calculated surface displacement in = 0.020213 s


Detecting near surfaces ...
Overriding nearest with intersection of close gaps at 21 out of 5346 points.
Overriding displacement on features :
   implicit features    : false
   explicit features    : true
   multi-patch features : true

Detected 24 baffle edges out of 9618 edges.
Initially selected 2180 points out of 5346 for reverse attraction.
Selected 3640 points out of 5346 for reverse attraction.
Removing constraints near multi-patch points : changed 0 points
Stringing feature edges : changed 6 points
Stringing feature edges : changed 2 points
Stringing feature edges : changed 1 points
Stringing feature edges : changed 0 points
Attraction:
     linear   : max:(0.00239911 -0.00562294 -4.84903e-07) avg:(1.06453e-07 3.93336e-06 -8.22634e-09)
     feature  : max:(6.17695e-05 2.07154e-05 0.00612639) avg:(-1.55418e-07 5.4112e-07 1.00345e-10)
Feature analysis : total master points:5346 attraction to :
    feature point   : 2
    feature edge    : 2155
    nearest surface : 0
    rest            : 3189

--> FOAM Warning : Displacement (-0.000120245 0.000106181 0) at mesh point 4594 coord (0.250076 -0.178346 0) points through the surrounding patch faces
Smoothing displacement ...
Iteration 0
Iteration 10
Iteration 20
Iteration 30
Iteration 40
Iteration 50
Iteration 60
Iteration 70
Iteration 80
Iteration 90
Iteration 100
Iteration 110
Iteration 120
Iteration 130
Iteration 140
Iteration 150
Iteration 160
Iteration 170
Displacement smoothed in = 0.311755 s


Moving mesh ...

Iteration 0
Moving mesh using displacement scaling : min:1  max:1
Checking faces in error :
    non-orthogonality > 84  degrees                        : 0
    faces with face-decomposition tet quality < 1e-15      : 0
    faces with concavity > 80  degrees                     : 0
    faces with skewness > 4   (internal) or 20  (boundary) : 0
    faces with interpolation weights (0..1)  < 0.05        : 0
    faces with volume ratio of neighbour cells < 0.01      : 0
    faces with face twist < 0.02                           : 0
    faces on cells with determinant < 0.001                : 0
Successfully moved mesh
Moved mesh in = 0.052646 s



Morph iteration 2
-----------------
Calculating patchDisplacement as distance to nearest surface point ...
Wanted displacement : average:0.000823955 min:0 max:0.00460322
Calculated surface displacement in = 0.019152 s


Detecting near surfaces ...
Overriding nearest with intersection of close gaps at 30 out of 5346 points.
Overriding displacement on features :
   implicit features    : false
   explicit features    : true
   multi-patch features : true

Detected 24 baffle edges out of 9618 edges.
Initially selected 2175 points out of 5346 for reverse attraction.
Selected 3631 points out of 5346 for reverse attraction.
Removing constraints near multi-patch points : changed 0 points
Stringing feature edges : changed 6 points
Stringing feature edges : changed 2 points
Stringing feature edges : changed 1 points
Stringing feature edges : changed 0 points
Attraction:
     linear   : max:(0.00180647 -0.00423395 -3.65121e-07) avg:(-1.74271e-07 2.8181e-06 -1.07198e-08)
     feature  : max:(4.20034e-05 1.40865e-05 0.00563628) avg:(-1.80378e-07 2.74692e-07 1.00345e-10)
Feature analysis : total master points:5346 attraction to :
    feature point   : 2
    feature edge    : 2155
    nearest surface : 0
    rest            : 3189

--> FOAM Warning : Displacement (-0.000108221 9.5563e-05 0) at mesh point 4594 coord (0.249955 -0.17824 0) points through the surrounding patch faces
Smoothing displacement ...
Iteration 0
Iteration 10
Iteration 20
Iteration 30
Iteration 40
Iteration 50
Iteration 60
Iteration 70
Iteration 80
Iteration 90
Iteration 100
Iteration 110
Iteration 120
Iteration 130
Iteration 140
Iteration 150
Iteration 160
Iteration 170
Displacement smoothed in = 0.313506 s


Moving mesh ...

Iteration 0
Moving mesh using displacement scaling : min:1  max:1
Checking faces in error :
    non-orthogonality > 84  degrees                        : 0
    faces with face-decomposition tet quality < 1e-15      : 0
    faces with concavity > 80  degrees                     : 0
    faces with skewness > 4   (internal) or 20  (boundary) : 0
    faces with interpolation weights (0..1)  < 0.05        : 0
    faces with volume ratio of neighbour cells < 0.01      : 0
    faces with face twist < 0.02                           : 0
    faces on cells with determinant < 0.001                : 0
Successfully moved mesh
Moved mesh in = 0.052698 s



Morph iteration 3
-----------------
Calculating patchDisplacement as distance to nearest surface point ...
Wanted displacement : average:0.00035892 min:0 max:0.00227616
Calculated surface displacement in = 0.017526 s


Detecting near surfaces ...
Overriding nearest with intersection of close gaps at 42 out of 5346 points.
Overriding displacement on features :
   implicit features    : false
   explicit features    : true
   multi-patch features : true

Detected 22 baffle edges out of 9618 edges.
Initially selected 2175 points out of 5346 for reverse attraction.
Selected 3631 points out of 5346 for reverse attraction.
Removing constraints near multi-patch points : changed 0 points
Stringing feature edges : changed 6 points
Stringing feature edges : changed 2 points
Stringing feature edges : changed 1 points
Stringing feature edges : changed 0 points
Attraction:
     linear   : max:(0.000893248 -0.00209356 -1.80542e-07) avg:(-3.61315e-07 1.54841e-06 -3.4675e-09)
     feature  : max:(2.4362e-05 8.17019e-06 0.00453945) avg:(-2.9148e-08 2.65765e-07 1.007e-10)
Feature analysis : total master points:5346 attraction to :
    feature point   : 0
    feature edge    : 2157
    nearest surface : 0
    rest            : 3189

--> FOAM Warning : Displacement (-2.21372e-05 3.30363e-05 1.2419e-07) at mesh point 43923 coord (-0.0284604 0.041008 0.00624636) points through the surrounding patch faces
Smoothing displacement ...
Iteration 0
Iteration 10
Iteration 20
Iteration 30
Iteration 40
Iteration 50
Iteration 60
Iteration 70
Iteration 80
Iteration 90
Iteration 100
Iteration 110
Iteration 120
Iteration 130
Iteration 140
Iteration 150
Iteration 160
Iteration 170
Displacement smoothed in = 0.311979 s


Moving mesh ...

Iteration 0
Moving mesh using displacement scaling : min:1  max:1
Checking faces in error :
    non-orthogonality > 84  degrees                        : 0
    faces with face-decomposition tet quality < 1e-15      : 4
    faces with concavity > 80  degrees                     : 0
    faces with skewness > 4   (internal) or 20  (boundary) : 0
    faces with interpolation weights (0..1)  < 0.05        : 0
    faces with volume ratio of neighbour cells < 0.01      : 0
    faces with face twist < 0.02                           : 0
    faces on cells with determinant < 0.001                : 0

Iteration 1
Moving mesh using displacement scaling : min:0.75  max:1
Checking faces in error :
    non-orthogonality > 84  degrees                        : 0
    faces with face-decomposition tet quality < 1e-15      : 4
    faces with concavity > 80  degrees                     : 0
    faces with skewness > 4   (internal) or 20  (boundary) : 0
    faces with interpolation weights (0..1)  < 0.05        : 0
    faces with volume ratio of neighbour cells < 0.01      : 0
    faces with face twist < 0.02                           : 0
    faces on cells with determinant < 0.001                : 0

Iteration 2
Moving mesh using displacement scaling : min:0.5625  max:1
Checking faces in error :
    non-orthogonality > 84  degrees                        : 0
    faces with face-decomposition tet quality < 1e-15      : 0
    faces with concavity > 80  degrees                     : 0
    faces with skewness > 4   (internal) or 20  (boundary) : 0
    faces with interpolation weights (0..1)  < 0.05        : 0
    faces with volume ratio of neighbour cells < 0.01      : 0
    faces with face twist < 0.02                           : 0
    faces on cells with determinant < 0.001                : 0
Successfully moved mesh
Moved mesh in = 0.173915 s



Morph iteration 4
-----------------
Calculating patchDisplacement as distance to nearest surface point ...
Wanted displacement : average:7.52441e-05 min:0 max:0.00043773
Calculated surface displacement in = 0.014767 s


Detecting near surfaces ...
Overriding nearest with intersection of close gaps at 49 out of 5346 points.
Overriding displacement on features :
   implicit features    : false
   explicit features    : true
   multi-patch features : true

Detected 22 baffle edges out of 9618 edges.
Initially selected 2173 points out of 5346 for reverse attraction.
Selected 3625 points out of 5346 for reverse attraction.
Removing constraints near multi-patch points : changed 0 points
Stringing feature edges : changed 6 points
Stringing feature edges : changed 2 points
Stringing feature edges : changed 1 points
Stringing feature edges : changed 0 points
Attraction:
     linear   : max:(1.98874e-05 2.47437e-05 -0.00119895) avg:(-3.53683e-07 5.81214e-07 -6.16532e-10)
     feature  : max:(1.26683e-05 4.24851e-06 0.00299549) avg:(-1.04251e-07 -8.19864e-08 1.01041e-10)
Feature analysis : total master points:5346 attraction to :
    feature point   : 0
    feature edge    : 2157
    nearest surface : 0
    rest            : 3189

--> FOAM Warning : Displacement (-0.000194658 0.00017189 8.67362e-19) at mesh point 40275 coord (0.249895 -0.178338 0.00614303) points through the surrounding patch faces
Smoothing displacement ...
Iteration 0
Iteration 10
Iteration 20
Iteration 30
Iteration 40
Iteration 50
Iteration 60
Iteration 70
Iteration 80
Iteration 90
Iteration 100
Iteration 110
Iteration 120
Iteration 130
Iteration 140
Iteration 150
Iteration 160
Iteration 170
Displacement smoothed in = 0.310083 s


Moving mesh ...

Iteration 0
Moving mesh using displacement scaling : min:1  max:1
Checking faces in error :
    non-orthogonality > 84  degrees                        : 0
    faces with face-decomposition tet quality < 1e-15      : 4
    faces with concavity > 80  degrees                     : 0
    faces with skewness > 4   (internal) or 20  (boundary) : 0
    faces with interpolation weights (0..1)  < 0.05        : 0
    faces with volume ratio of neighbour cells < 0.01      : 0
    faces with face twist < 0.02                           : 0
    faces on cells with determinant < 0.001                : 0

Iteration 1
Moving mesh using displacement scaling : min:0.75  max:1
Checking faces in error :
    non-orthogonality > 84  degrees                        : 0
    faces with face-decomposition tet quality < 1e-15      : 4
    faces with concavity > 80  degrees                     : 0
    faces with skewness > 4   (internal) or 20  (boundary) : 0
    faces with interpolation weights (0..1)  < 0.05        : 0
    faces with volume ratio of neighbour cells < 0.01      : 0
    faces with face twist < 0.02                           : 0
    faces on cells with determinant < 0.001                : 0

Iteration 2
Moving mesh using displacement scaling : min:0.5625  max:1
Checking faces in error :
    non-orthogonality > 84  degrees                        : 0
    faces with face-decomposition tet quality < 1e-15      : 4
    faces with concavity > 80  degrees                     : 0
    faces with skewness > 4   (internal) or 20  (boundary) : 0
    faces with interpolation weights (0..1)  < 0.05        : 0
    faces with volume ratio of neighbour cells < 0.01      : 0
    faces with face twist < 0.02                           : 0
    faces on cells with determinant < 0.001                : 0

Iteration 3
Moving mesh using displacement scaling : min:0.421875  max:1
Checking faces in error :
    non-orthogonality > 84  degrees                        : 0
    faces with face-decomposition tet quality < 1e-15      : 4
    faces with concavity > 80  degrees                     : 0
    faces with skewness > 4   (internal) or 20  (boundary) : 0
    faces with interpolation weights (0..1)  < 0.05        : 0
    faces with volume ratio of neighbour cells < 0.01      : 0
    faces with face twist < 0.02                           : 0
    faces on cells with determinant < 0.001                : 0

Iteration 4
Moving mesh using displacement scaling : min:0.316406  max:1
Checking faces in error :
    non-orthogonality > 84  degrees                        : 0
    faces with face-decomposition tet quality < 1e-15      : 4
    faces with concavity > 80  degrees                     : 0
    faces with skewness > 4   (internal) or 20  (boundary) : 0
    faces with interpolation weights (0..1)  < 0.05        : 0
    faces with volume ratio of neighbour cells < 0.01      : 0
    faces with face twist < 0.02                           : 0
    faces on cells with determinant < 0.001                : 0

Iteration 5
Moving mesh using displacement scaling : min:0.237305  max:1
Checking faces in error :
    non-orthogonality > 84  degrees                        : 0
    faces with face-decomposition tet quality < 1e-15      : 4
    faces with concavity > 80  degrees                     : 0
    faces with skewness > 4   (internal) or 20  (boundary) : 0
    faces with interpolation weights (0..1)  < 0.05        : 0
    faces with volume ratio of neighbour cells < 0.01      : 0
    faces with face twist < 0.02                           : 0
    faces on cells with determinant < 0.001                : 0

Iteration 6
Displacement scaling for error reduction set to 0.
Moving mesh using displacement scaling : min:0.177979  max:1
Checking faces in error :
    non-orthogonality > 84  degrees                        : 0
    faces with face-decomposition tet quality < 1e-15      : 4
    faces with concavity > 80  degrees                     : 0
    faces with skewness > 4   (internal) or 20  (boundary) : 0
    faces with interpolation weights (0..1)  < 0.05        : 0
    faces with volume ratio of neighbour cells < 0.01      : 0
    faces with face twist < 0.02                           : 0
    faces on cells with determinant < 0.001                : 0

Iteration 7
Moving mesh using displacement scaling : min:0  max:1
Checking faces in error :
    non-orthogonality > 84  degrees                        : 0
    faces with face-decomposition tet quality < 1e-15      : 0
    faces with concavity > 80  degrees                     : 0
    faces with skewness > 4   (internal) or 20  (boundary) : 0
    faces with interpolation weights (0..1)  < 0.05        : 0
    faces with volume ratio of neighbour cells < 0.01      : 0
    faces with face twist < 0.02                           : 0
    faces on cells with determinant < 0.001                : 0
Successfully moved mesh
Moved mesh in = 0.476418 s


Repatching faces according to nearest surface ...
Repatched 0 faces in = 0.01447 s


Edge intersection testing:
    Number of edges             : 133960
    Number of edges to retest   : 111678
    Number of intersected edges : 12543
Merging 1192 sets of faces.

Edge intersection testing:
    Number of edges             : 132768
    Number of edges to retest   : 5076
    Number of intersected edges : 11351

Undo iteration 0
----------------
Checking faces in error :
    non-orthogonality > 84  degrees                        : 0
    faces with face-decomposition tet quality < 1e-15      : 0
    faces with concavity > 80  degrees                     : 0
    faces with skewness > 4   (internal) or 20  (boundary) : 0
    faces with interpolation weights (0..1)  < 0.05        : 0
    faces with volume ratio of neighbour cells < 0.01      : 0
    faces with face twist < 0.02                           : 0
    faces on cells with determinant < 0.001                : 0

Merging all points on surface that
- are used by only two boundary faces and
- make an angle with a cosine of more than 0.587785.

Removing 1500 straight edge points ...

Edge intersection testing:
    Number of edges             : 132768
    Number of edges to retest   : 5076
    Number of intersected edges : 11351

Undo iteration 0
----------------
Checking faces in error :
    non-orthogonality > 84  degrees                        : 0
    faces with face-decomposition tet quality < 1e-15      : 0
    faces with concavity > 80  degrees                     : 0
    faces with skewness > 4   (internal) or 20  (boundary) : 0
    faces with interpolation weights (0..1)  < 0.05        : 0
    faces with volume ratio of neighbour cells < 0.01      : 0
    faces with face twist < 0.02                           : 0
    faces on cells with determinant < 0.001                : 0
Snapped mesh : cells:37224  faces:132768  points:59056
Cells per refinement level:
    0	8089
    1	14473
    2	3662
    3	11000
Writing mesh to time constant
Wrote mesh in = 0.420157 s.
Mesh snapped in = 3.35452 s.
Layer thickness specified as final layer and expansion ratio.

Shrinking and layer addition phase
----------------------------------

Using mesh parameters 
{
    maxNonOrtho     84;
    maxBoundarySkewness 20;
    maxInternalSkewness 4;
    maxConcave      80;
    minVol          -1e+30;
    minTetQuality   1e-15;
    minTwist        0.02;
    minDeterminant  0.001;
    minFaceWeight   0.05;
    minVolRatio     0.01;
    nSmoothScale    4;
    errorReduction  0.75;
    relaxed
    {
        maxNonOrtho     180;
    }
}



Merging all faces of a cell
---------------------------
    - which are on the same patch
    - which make an angle < 95 degrees
      (cos:-0.0871557)
    - as long as the resulting face doesn't become concave by more than 90 degrees
      (0=straight, 180=fully concave)

Merging 0 sets of faces.

No faces merged ...

Merging all points on surface that
- are used by only two boundary faces and
- make an angle with a cosine of more than -0.0871557.

No straight edges simplified and no points removed ...

Checking mesh manifoldness ...

Checking initial mesh ...
Checking faces in error :
    non-orthogonality > 84  degrees                        : 0
    faces with face-decomposition tet quality < 1e-15      : 0
    faces with concavity > 80  degrees                     : 0
    faces with skewness > 4   (internal) or 20  (boundary) : 0
    faces with interpolation weights (0..1)  < 0.05        : 0
    faces with volume ratio of neighbour cells < 0.01      : 0
    faces with face twist < 0.02                           : 0
    faces on cells with determinant < 0.001                : 0
Detected 0 illegal faces (concave, zero area or negative cell pyramid volume)
Converting zoned faces into baffles ...
For zone innerAMI found patches AMI and AMI_slave
Created 0 baffles in = 0.106427 s



Adding in total 0 inter-processor patches to handle extrusion of non-manifold processor boundaries.

Handling points with inconsistent layer specification ...

Handling non-manifold points ...

Checking patch manifoldness ...
Outside of local patch is multiply connected across edges or points at 0 points.
Set displacement to zero for all 0 non-manifold points

Handling feature edges ...
Set displacement to zero for points on 22 feature edges

Handling cells with warped patch faces ...
Set displacement to zero on 0 warped faces since layer would be > 0.8 of the size of the bounding box.

patch faces    layers avg thickness[m]
                     near-wall overall
----- -----    ------ --------- -------
VAWT 2064     3      0.00065   0.00275 

Selecting externalDisplacementMeshMover displacementMedialAxis
displacementMedialAxis : Calculating distance to Medial Axis ...
displacementMedialAxis : Smoothing normals ...
    Iteration 0   residual 0.0322039
displacementMedialAxis : Limited walk to 4 steps. Not visited 46036 out of 59056 points
displacementMedialAxis : Inserting points on patch inlet if angle to nearest layer patch > 47.5 degrees.
displacementMedialAxis : Inserting points on patch outlet if angle to nearest layer patch > 47.5 degrees.
displacementMedialAxis : Inserting points on patch front if angle to nearest layer patch > 47.5 degrees.
displacementMedialAxis : Inserting points on patch back if angle to nearest layer patch > 47.5 degrees.
displacementMedialAxis : Inserting points on patch bottom if angle to nearest layer patch > 47.5 degrees.
displacementMedialAxis : Inserting points on patch top if angle to nearest layer patch > 47.5 degrees.
displacementMedialAxis : Inserting points on patch AMI if angle to nearest layer patch > 47.5 degrees.
displacementMedialAxis : Inserting points on patch AMI_slave if angle to nearest layer patch > 47.5 degrees.
displacementMedialAxis : Smoothing normals in interior ...
    Iteration 0   residual 0.0381684

Layer addition iteration 0
--------------------------

Determining displacement for added points according to pointNormal ...
Detected 0 points with point normal pointing through faces.
Reset displacement at 0 points to average of surrounding points.

displacementMedialAxis : Smoothing using Medial Axis ...
displacementMedialAxis : Reducing layer thickness at 0 nodes where thickness to medial axis distance is large 
displacementMedialAxis : Removing isolated regions ...
displacementMedialAxis : Number of isolated points extrusion stopped : 6
displacementMedialAxis : Smoothing field ...
    Iteration 0   residual 1.04454e-05
displacementMedialAxis : Moving mesh ...
displacementMedialAxis : Iteration 0
Moving mesh using displacement scaling : min:1  max:1
Checking faces in error :
    non-orthogonality > 84  degrees                        : 0
    faces with face-decomposition tet quality < 1e-15      : 0
    faces with concavity > 80  degrees                     : 0
    faces with skewness > 4   (internal) or 20  (boundary) : 0
    faces with interpolation weights (0..1)  < 0.05        : 0
    faces with volume ratio of neighbour cells < 0.01      : 0
    faces with face twist < 0.02                           : 0
    faces on cells with determinant < 0.001                : 0
displacementMedialAxis : Successfully moved mesh
displacementMedialAxis : Finished moving mesh ...
truncateDisplacement : Unextruded 0 faces due to non-consecutive vertices being extruded.
truncateDisplacement : Unextruded 0 faces due to stringed edges with inconsistent extrusion.

Setting up information for layer truncation ...

Checking mesh with layer ...
Checking faces in error :
    non-orthogonality > 84  degrees                        : 0
    faces with face-decomposition tet quality < 1e-15      : 0
    faces with concavity > 80  degrees                     : 0
    faces with skewness > 4   (internal) or 20  (boundary) : 0
    faces with interpolation weights (0..1)  < 0.05        : 0
    faces with volume ratio of neighbour cells < 0.01      : 0
    faces with face twist < 0.02                           : 0
    faces on cells with determinant < 0.001                : 0
Detected 0 illegal faces (concave, zero area or negative cell pyramid volume)
Extruding 2062 out of 2064 faces (99.9031%). Removed extrusion at 0 faces.
Added 6036 out of 6192 cells (97.4806%).
Edge intersection testing:
    Number of edges             : 151654
    Number of edges to retest   : 0
    Number of intersected edges : 18140
Writing 6036 added cells to cellSet addedCells
Writing 3974 faces inside added layer to faceSet layerFaces

Writing fields with layer information:
    nSurfaceLayers    : actual number of layers
    thickness         : overall layer thickness
    thicknessFraction : overall layer thickness (fraction of desired thickness)


patch faces    layers   overall thickness
                       [m]       [%]
----- -----    ------   ---       ---
VAWT 2064     2.92     0.00267   96.3    

Layer mesh : cells:43260  faces:151654  points:65873
Cells per refinement level:
    0	8089
    1	14473
    2	3662
    3	17036
Writing mesh to time constant
Wrote mesh in = 0.324596 s.
Layers added in = 0.431019 s.
Checking final mesh ...
Checking faces in error :
    non-orthogonality > 84  degrees                        : 0
    faces with face-decomposition tet quality < 1e-15      : 0
    faces with concavity > 80  degrees                     : 0
    faces with skewness > 4   (internal) or 20  (boundary) : 0
    faces with interpolation weights (0..1)  < 0.05        : 0
    faces with volume ratio of neighbour cells < 0.01      : 0
    faces with face twist < 0.02                           : 0
    faces on cells with determinant < 0.001                : 0
Finished meshing without any errors
Finished meshing in = 7.98257 s.
End

/*---------------------------------------------------------------------------*\
  =========                 |
  \\      /  F ield         | OpenFOAM: The Open Source CFD Toolbox
   \\    /   O peration     | Website:  https://openfoam.org
    \\  /    A nd           | Version:  12
     \\/     M anipulation  |
\*---------------------------------------------------------------------------*/
Build  : 12-86e126a7bc4d
Exec   : extrudeMesh
Date   : Mar 01 2025
Time   : 12:04:52
Host   : "297a99731212"
PID    : 255
I/O    : uncollated
Case   : /root/OpenFOAM/12/work/OpenFOAM_12_cases/verticalAxialWindTurbineNCC
nProcs : 1
sigFpe : Enabling floating point exception trapping (FOAM_SIGFPE).
fileModificationChecking : Monitoring run-time modified files using timeStampMaster (fileModificationSkew 10)
allowSystemOperations : Allowing user-supplied system call operations

// * * * * * * * * * * * * * * * * * * * * * * * * * * * * * * * * * * * * * //
Create time

Reading "extrudeMeshDict"

Selecting extrudeModel linearNormal
Extruding from patch using model linearNormal
Flipping normals before extruding
Not collapsing any edges after extrusion

Extruding patches 1(front) on mesh "/root/OpenFOAM/12/work/OpenFOAM_12_cases/verticalAxialWindTurbineNCC"

Create mesh for time = 0

Adding overall 0 processor patches.
--> FOAM Warning : 
    From function void Foam::faceZone::checkAddressing() const
    in file meshes/zones/faceZones/faceZone.C at line 175
    Illegal face index 150638 outside range 0..74223
Mesh bounding box : (-0.85 -0.8 -2.08167e-17) (1.65 0.8 0.05)
        with span : (2.5 1.6 0.05)
Merge distance    : 0

Writing mesh to "constant/region0"

End

/*---------------------------------------------------------------------------*\
  =========                 |
  \\      /  F ield         | OpenFOAM: The Open Source CFD Toolbox
   \\    /   O peration     | Website:  https://openfoam.org
    \\  /    A nd           | Version:  12
     \\/     M anipulation  |
\*---------------------------------------------------------------------------*/
Build  : 12-86e126a7bc4d
Exec   : changeDictionary
Date   : Mar 01 2025
Time   : 12:04:52
Host   : "297a99731212"
PID    : 257
I/O    : uncollated
Case   : /root/OpenFOAM/12/work/OpenFOAM_12_cases/verticalAxialWindTurbineNCC
nProcs : 1
sigFpe : Enabling floating point exception trapping (FOAM_SIGFPE).
fileModificationChecking : Monitoring run-time modified files using timeStampMaster (fileModificationSkew 10)
allowSystemOperations : Allowing user-supplied system call operations

// * * * * * * * * * * * * * * * * * * * * * * * * * * * * * * * * * * * * * //
--> FOAM Warning : 
changeDictionary has been superseded by foamDictionary and is now deprecated.

Create time

Create mesh for time = 0

Reading "changeDictionaryDict"

Read dictionary "/root/OpenFOAM/12/work/OpenFOAM_12_cases/verticalAxialWindTurbineNCC/system/changeDictionaryDict" with replacements for dictionaries 1(boundary)
Reading polyMesh/boundary file to extract patch names
Loaded dictionary boundary with entries 
9
(
inlet
outlet
front
back
bottom
top
VAWT
AMI
AMI_slave
)

Extracted patch groups:
    group wall with patches 
3
(
VAWT
AMI
AMI_slave
)

Replacing entries in dictionary boundary
Special handling of boundary as polyMesh/boundary file.
Merging entries from 
4
(
top
bottom
front
back
)

fieldDict:
{
    inlet
    {
        type            patch;
        nFaces          80;
        startFace       36310;
    }
    outlet
    {
        type            patch;
        nFaces          80;
        startFace       36390;
    }
    front
    {
        type            empty;
        nFaces          18369;
        startFace       36470;
    }
    back
    {
        type            empty;
        nFaces          18369;
        startFace       54839;
    }
    bottom
    {
        type            wall;
        nFaces          125;
        startFace       73208;
    }
    top
    {
        type            wall;
        nFaces          125;
        startFace       73333;
    }
    VAWT
    {
        type            wall;
        inGroups        List<word> 0();
        nFaces          258;
        startFace       73458;
    }
    AMI
    {
        type            wall;
        inGroups        List<word> 0();
        nFaces          252;
        startFace       73716;
    }
    AMI_slave
    {
        type            wall;
        inGroups        List<word> 0();
        nFaces          256;
        startFace       73968;
    }
}

Writing modified boundary

End

/*---------------------------------------------------------------------------*\
  =========                 |
  \\      /  F ield         | OpenFOAM: The Open Source CFD Toolbox
   \\    /   O peration     | Website:  https://openfoam.org
    \\  /    A nd           | Version:  12
     \\/     M anipulation  |
\*---------------------------------------------------------------------------*/
Build  : 12-86e126a7bc4d
Exec   : createNonConformalCouples -overwrite AMI AMI_slave
Date   : Mar 01 2025
Time   : 12:04:53
Host   : "297a99731212"
PID    : 258
I/O    : uncollated
Case   : /root/OpenFOAM/12/work/OpenFOAM_12_cases/verticalAxialWindTurbineNCC
nProcs : 1
sigFpe : Enabling floating point exception trapping (FOAM_SIGFPE).
fileModificationChecking : Monitoring run-time modified files using timeStampMaster (fileModificationSkew 10)
allowSystemOperations : Allowing user-supplied system call operations

// * * * * * * * * * * * * * * * * * * * * * * * * * * * * * * * * * * * * * //
Create time

Adding nonConformalCyclic interfaces between patches: 
    (AMI AMI_slave)
In regions: 
    (region0 region0)
Named:
    (nonConformalCyclic_on_AMI nonConformalCyclic_on_AMI_slave)
With transform: 
    transformType   none;

patchToPatch: Calculating couplings between 252 source faces and 256 target faces
    Source min/average/max coverage = 1/1/1
    Target min/average/max coverage = 1/1/1
    Source average openness/error/depth/angle = 1.19031e-16/0.000236481/0.000358896/0.137985
    Source max openness/error/depth/angle = 4.30091e-16/0.000775023/0.00140595/0.552331
    1014 couplings calculated in 0.010808s
fvMeshStitcher: Connecting

Writing mesh to 0

End

